<?xml version="1.0" encoding="UTF-8"?>

<!-- generated on Sun Feb 12 11:07:55 2017 by SUMO duarouter Version 0.28.0
<?xml version="1.0" encoding="UTF-8"?>

<configuration xmlns:xsi="http://www.w3.org/2001/XMLSchema-instance" xsi:noNamespaceSchemaLocation="http://sumo.dlr.de/xsd/duarouterConfiguration.xsd">

    <input>
        <net-file value="grid-1.net.xml"/>
        <additional-files value="bustype.add.xml"/>
        <trip-files value="trips.trips.xml"/>
    </input>

    <output>
        <output-file value="busroutes.rou.xml"/>
    </output>

    <processing>
        <ignore-errors value="true"/>
    </processing>

    <time>
        <begin value="0"/>
        <end value="3600"/>
    </time>

    <report>
        <no-warnings value="true"/>
        <no-step-log value="true"/>
    </report>

</configuration>
-->

<routes xmlns:xsi="http://www.w3.org/2001/XMLSchema-instance" xsi:noNamespaceSchemaLocation="http://sumo.dlr.de/xsd/routes_file.xsd">
    <vType id="busType" maxSpeed="27.00" vClass="bus"/>
     <vehicle id="bus0" type="busType" depart="0.00">
        <route edges="7/1to6/1 6/1to7/1 7/1to8/1 8/1to8/2"/>
    </vehicle>
     <vehicle id="bus1" type="busType" depart="1.00">
        <route edges="7/1to6/1 6/1to6/2 6/2to6/3 6/3to6/4 6/4to6/5 6/5to6/6 6/6to6/7 6/7to6/8 6/8to7/8 7/8to8/8 8/8to8/7"/>
    </vehicle>
     <vehicle id="bus2" type="busType" depart="2.00">
        <route edges="2/5to2/6 2/6to2/5 2/5to2/4 2/4to3/4 3/4to3/3"/>
    </vehicle>
     <vehicle id="bus3" type="busType" depart="3.00">
        <route edges="3/1to3/2 3/2to3/3 3/3to3/4 3/4to3/5 3/5to3/6 3/6to3/7 3/7to4/7 4/7to5/7 5/7to6/7 6/7to7/7 7/7to8/7 8/7to9/7"/>
    </vehicle>
     <vehicle id="bus4" type="busType" depart="4.00">
        <route edges="2/8to1/8 1/8to0/8 0/8to0/7 0/7to0/6 0/6to0/5 0/5to0/4 0/4to0/3 0/3to0/4"/>
    </vehicle>
     <vehicle id="bus5" type="busType" depart="5.00">
        <route edges="6/1to6/0 6/0to6/1 6/1to6/2 6/2to6/3"/>
    </vehicle>
     <vehicle id="bus6" type="busType" depart="6.00">
        <route edges="0/7to0/6 0/6to0/7 0/7to0/8 0/8to1/8 1/8to2/8 2/8to3/8 3/8to4/8 4/8to3/8"/>
    </vehicle>
     <vehicle id="bus7" type="busType" depart="7.00">
        <route edges="3/6to3/7 3/7to3/6 3/6to3/5 3/5to3/4 3/4to3/3 3/3to4/3 4/3to5/3 5/3to6/3 6/3to7/3"/>
    </vehicle>
     <vehicle id="bus8" type="busType" depart="8.00">
        <route edges="6/8to6/9 6/9to6/8 6/8to6/7 6/7to5/7"/>
    </vehicle>
     <vehicle id="bus9" type="busType" depart="9.00">
        <route edges="6/6to7/6 7/6to7/7 7/7to7/8 7/8to8/8 8/8to9/8 9/8to9/7"/>
    </vehicle>
     <vehicle id="bus10" type="busType" depart="10.00">
        <route edges="8/2to9/2 9/2to8/2 8/2to7/2 7/2to6/2 6/2to5/2 5/2to4/2 4/2to3/2 3/2to2/2 2/2to2/1 2/1to2/0"/>
    </vehicle>
     <vehicle id="bus11" type="busType" depart="11.00">
        <route edges="6/3to6/2 6/2to5/2 5/2to4/2 4/2to3/2 3/2to3/3 3/3to3/4 3/4to2/4"/>
    </vehicle>
     <vehicle id="bus12" type="busType" depart="12.00">
        <route edges="7/8to7/7 7/7to6/7 6/7to5/7 5/7to4/7 4/7to3/7 3/7to2/7 2/7to1/7 1/7to0/7 0/7to0/8 0/8to0/7"/>
    </vehicle>
     <vehicle id="bus13" type="busType" depart="13.00">
        <route edges="1/8to0/8 0/8to0/7 0/7to0/6 0/6to0/5 0/5to0/4 0/4to0/3 0/3to0/2 0/2to1/2 1/2to2/2 2/2to3/2 3/2to4/2 4/2to5/2 5/2to5/3"/>
    </vehicle>
     <vehicle id="bus14" type="busType" depart="14.00">
        <route edges="2/1to2/0 2/0to2/1 2/1to2/2 2/2to2/3 2/3to2/4 2/4to2/5 2/5to2/6 2/6to2/7 2/7to3/7 3/7to4/7 4/7to5/7 5/7to6/7 6/7to7/7 7/7to8/7 8/7to9/7 9/7to9/6"/>
    </vehicle>
     <vehicle id="bus15" type="busType" depart="15.00">
        <route edges="5/2to6/2 6/2to7/2 7/2to8/2 8/2to9/2 9/2to9/1"/>
    </vehicle>
     <vehicle id="bus16" type="busType" depart="16.00">
        <route edges="0/7to0/8 0/8to0/7 0/7to0/6 0/6to0/5 0/5to0/4 0/4to1/4 1/4to2/4 2/4to3/4 3/4to4/4 4/4to5/4 5/4to6/4 6/4to7/4 7/4to8/4 8/4to7/4"/>
    </vehicle>
     <vehicle id="bus17" type="busType" depart="17.00">
        <route edges="7/6to7/7 7/7to6/7 6/7to5/7 5/7to4/7 4/7to3/7 3/7to2/7 2/7to1/7 1/7to1/8 1/8to1/9 1/9to1/8"/>
    </vehicle>
     <vehicle id="bus18" type="busType" depart="18.00">
        <route edges="4/1to5/1 5/1to5/2 5/2to5/3 5/3to5/4 5/4to5/5 5/5to5/6 5/6to5/7 5/7to6/7 6/7to7/7 7/7to8/7 8/7to9/7 9/7to8/7"/>
    </vehicle>
     <vehicle id="bus19" type="busType" depart="19.00">
        <route edges="6/6to6/7 6/7to5/7 5/7to5/6 5/6to5/5 5/5to5/4"/>
    </vehicle>
     <vehicle id="bus20" type="busType" depart="20.00">
        <route edges="5/6to6/6 6/6to5/6 5/6to4/6 4/6to3/6 3/6to3/7 3/7to3/6"/>
    </vehicle>
     <vehicle id="bus21" type="busType" depart="21.00">
        <route edges="9/9to8/9 8/9to9/9"/>
    </vehicle>
     <vehicle id="bus22" type="busType" depart="22.00">
        <route edges="6/7to7/7 7/7to6/7 6/7to5/7 5/7to4/7 4/7to3/7 3/7to2/7 2/7to1/7 1/7to0/7 0/7to0/6 0/6to0/5 0/5to0/4 0/4to0/3 0/3to0/2"/>
    </vehicle>
     <vehicle id="bus23" type="busType" depart="23.00">
        <route edges="8/2to7/2 7/2to6/2 6/2to6/3 6/3to6/4 6/4to6/5 6/5to6/6 6/6to7/6"/>
    </vehicle>
     <vehicle id="bus24" type="busType" depart="24.00">
        <route edges="9/2to8/2 8/2to7/2 7/2to6/2 6/2to5/2 5/2to4/2 4/2to4/1 4/1to4/2"/>
    </vehicle>
     <vehicle id="bus25" type="busType" depart="25.00">
        <route edges="6/3to5/3 5/3to4/3 4/3to3/3 3/3to2/3 2/3to1/3 1/3to0/3 0/3to0/2 0/2to0/1 0/1to1/1"/>
    </vehicle>
     <vehicle id="bus26" type="busType" depart="26.00">
        <route edges="9/3to9/2 9/2to9/3 9/3to9/4 9/4to9/5 9/5to9/6 9/6to9/7 9/7to9/6"/>
    </vehicle>
     <vehicle id="bus27" type="busType" depart="27.00">
        <route edges="9/5to9/4 9/4to8/4 8/4to8/5 8/5to8/6 8/6to8/7 8/7to8/8 8/8to8/9 8/9to9/9"/>
    </vehicle>
     <vehicle id="bus28" type="busType" depart="28.00">
        <route edges="5/5to6/5 6/5to7/5 7/5to8/5"/>
    </vehicle>
     <vehicle id="bus29" type="busType" depart="29.00">
        <route edges="7/4to7/3 7/3to6/3 6/3to5/3 5/3to4/3 4/3to3/3 3/3to2/3 2/3to1/3 1/3to1/4 1/4to1/5"/>
    </vehicle>
     <vehicle id="bus30" type="busType" depart="30.00">
        <route edges="4/9to5/9 5/9to5/8 5/8to5/7 5/7to5/6 5/6to5/5 5/5to5/4 5/4to5/5"/>
    </vehicle>
     <vehicle id="bus31" type="busType" depart="31.00">
        <route edges="8/0to7/0 7/0to6/0 6/0to5/0 5/0to4/0 4/0to3/0 3/0to3/1 3/1to3/2 3/2to3/3 3/3to3/4 3/4to3/5"/>
    </vehicle>
     <vehicle id="bus32" type="busType" depart="32.00">
        <route edges="6/0to7/0 7/0to8/0 8/0to9/0 9/0to8/0"/>
    </vehicle>
     <vehicle id="bus33" type="busType" depart="33.00">
        <route edges="6/6to6/7 6/7to5/7 5/7to4/7 4/7to4/6 4/6to4/5 4/5to4/4 4/4to4/3 4/3to3/3"/>
    </vehicle>
     <vehicle id="bus34" type="busType" depart="34.00">
        <route edges="4/4to4/5 4/5to5/5 5/5to5/4"/>
    </vehicle>
     <vehicle id="bus35" type="busType" depart="35.00">
        <route edges="7/0to7/1 7/1to6/1 6/1to5/1 5/1to4/1 4/1to3/1 3/1to3/2 3/2to3/3 3/3to3/4 3/4to3/3"/>
    </vehicle>
     <vehicle id="bus36" type="busType" depart="36.00">
        <route edges="2/1to2/2 2/2to2/3 2/3to2/4 2/4to2/5 2/5to2/6 2/6to2/7 2/7to3/7 3/7to4/7 4/7to3/7"/>
    </vehicle>
     <vehicle id="bus37" type="busType" depart="37.00">
        <route edges="1/7to0/7 0/7to0/6 0/6to1/6 1/6to2/6 2/6to1/6"/>
    </vehicle>
     <vehicle id="bus38" type="busType" depart="38.00">
        <route edges="3/3to4/3 4/3to3/3 3/3to2/3 2/3to1/3 1/3to0/3 0/3to1/3"/>
    </vehicle>
     <vehicle id="bus39" type="busType" depart="39.00">
        <route edges="9/7to9/6 9/6to8/6 8/6to8/5 8/5to9/5"/>
    </vehicle>
     <vehicle id="bus40" type="busType" depart="40.00">
        <route edges="6/2to6/1 6/1to5/1 5/1to4/1 4/1to3/1 3/1to2/1 2/1to2/2 2/2to2/3 2/3to2/2"/>
    </vehicle>
     <vehicle id="bus41" type="busType" depart="41.00">
        <route edges="9/7to8/7 8/7to7/7 7/7to6/7 6/7to5/7 5/7to4/7 4/7to3/7 3/7to2/7 2/7to2/6 2/6to2/5 2/5to2/4 2/4to2/3 2/3to1/3"/>
    </vehicle>
     <vehicle id="bus42" type="busType" depart="42.00">
        <route edges="8/7to8/6 8/6to7/6 7/6to6/6 6/6to5/6 5/6to4/6 4/6to3/6 3/6to2/6 2/6to2/7"/>
    </vehicle>
     <vehicle id="bus43" type="busType" depart="43.00">
        <route edges="1/9to1/8 1/8to1/7 1/7to1/6 1/6to1/5 1/5to1/4 1/4to2/4 2/4to3/4 3/4to3/5"/>
    </vehicle>
     <vehicle id="bus44" type="busType" depart="44.00">
        <route edges="2/8to2/9 2/9to2/8"/>
    </vehicle>
     <vehicle id="bus45" type="busType" depart="45.00">
        <route edges="3/7to3/6 3/6to4/6 4/6to5/6 5/6to6/6 6/6to7/6 7/6to8/6 8/6to7/6"/>
    </vehicle>
     <vehicle id="bus46" type="busType" depart="46.00">
        <route edges="2/7to2/8 2/8to1/8 1/8to1/7 1/7to1/6 1/6to2/6"/>
    </vehicle>
     <vehicle id="bus47" type="busType" depart="47.00">
        <route edges="7/5to8/5 8/5to7/5 7/5to6/5 6/5to5/5 5/5to4/5 4/5to3/5 3/5to2/5 2/5to3/5"/>
    </vehicle>
     <vehicle id="bus48" type="busType" depart="48.00">
        <route edges="5/5to4/5 4/5to3/5 3/5to3/6"/>
    </vehicle>
     <vehicle id="bus49" type="busType" depart="49.00">
        <route edges="6/0to6/1 6/1to5/1 5/1to4/1 4/1to3/1 3/1to2/1 2/1to2/2 2/2to2/3 2/3to2/4 2/4to2/5 2/5to2/6 2/6to2/7 2/7to2/8 2/8to2/9 2/9to2/8"/>
    </vehicle>
     <vehicle id="bus50" type="busType" depart="50.00">
        <route edges="3/4to3/3 3/3to2/3 2/3to1/3 1/3to1/2 1/2to1/1 1/1to1/2"/>
    </vehicle>
     <vehicle id="bus51" type="busType" depart="51.00">
        <route edges="4/7to3/7 3/7to3/6 3/6to3/5 3/5to3/4 3/4to3/3 3/3to3/2 3/2to3/1 3/1to3/0 3/0to4/0 4/0to5/0 5/0to6/0 6/0to7/0 7/0to8/0 8/0to9/0"/>
    </vehicle>
     <vehicle id="bus52" type="busType" depart="52.00">
        <route edges="3/5to3/6 3/6to3/7 3/7to4/7 4/7to3/7"/>
    </vehicle>
     <vehicle id="bus53" type="busType" depart="53.00">
        <route edges="6/1to6/2 6/2to6/3 6/3to6/4 6/4to6/5 6/5to6/6 6/6to6/7 6/7to6/8 6/8to6/9 6/9to7/9 7/9to8/9"/>
    </vehicle>
     <vehicle id="bus54" type="busType" depart="54.00">
        <route edges="2/7to2/8 2/8to3/8 3/8to4/8 4/8to5/8 5/8to6/8 6/8to7/8 7/8to6/8"/>
    </vehicle>
     <vehicle id="bus55" type="busType" depart="55.00">
        <route edges="3/7to4/7 4/7to4/6 4/6to5/6 5/6to6/6 6/6to7/6 7/6to8/6 8/6to9/6 9/6to9/5"/>
    </vehicle>
     <vehicle id="bus56" type="busType" depart="56.00">
        <route edges="3/4to2/4 2/4to2/3 2/3to2/2 2/2to2/1 2/1to2/0 2/0to2/1"/>
    </vehicle>
     <vehicle id="bus57" type="busType" depart="57.00">
        <route edges="9/1to9/2 9/2to8/2 8/2to7/2 7/2to6/2 6/2to5/2 5/2to4/2 4/2to3/2 3/2to2/2 2/2to1/2 1/2to1/3 1/3to1/2"/>
    </vehicle>
     <vehicle id="bus58" type="busType" depart="58.00">
        <route edges="0/5to0/6 0/6to0/7 0/7to0/8 0/8to1/8 1/8to2/8 2/8to3/8 3/8to4/8 4/8to3/8"/>
    </vehicle>
     <vehicle id="bus59" type="busType" depart="59.00">
        <route edges="4/8to4/7 4/7to3/7 3/7to3/6 3/6to3/5 3/5to3/4 3/4to4/4"/>
    </vehicle>
     <vehicle id="bus60" type="busType" depart="60.00">
        <route edges="6/0to7/0 7/0to6/0 6/0to6/1 6/1to6/2 6/2to6/3 6/3to6/4 6/4to6/5 6/5to6/6 6/6to6/7 6/7to6/8 6/8to6/9 6/9to7/9"/>
    </vehicle>
     <vehicle id="bus61" type="busType" depart="61.00">
        <route edges="9/7to8/7 8/7to7/7 7/7to6/7 6/7to5/7 5/7to4/7 4/7to4/8 4/8to4/7"/>
    </vehicle>
     <vehicle id="bus62" type="busType" depart="62.00">
        <route edges="1/1to2/1 2/1to2/2 2/2to2/3 2/3to2/4 2/4to2/5 2/5to2/6 2/6to2/7 2/7to2/8 2/8to3/8 3/8to4/8 4/8to5/8 5/8to6/8 6/8to7/8 7/8to8/8 8/8to7/8"/>
    </vehicle>
     <vehicle id="bus63" type="busType" depart="63.00">
        <route edges="3/3to3/2 3/2to3/3 3/3to4/3 4/3to4/4"/>
    </vehicle>
     <vehicle id="bus64" type="busType" depart="64.00">
        <route edges="9/3to8/3 8/3to7/3 7/3to6/3 6/3to5/3 5/3to5/4 5/4to5/5 5/5to5/6 5/6to5/7"/>
    </vehicle>
     <vehicle id="bus65" type="busType" depart="65.00">
        <route edges="3/1to3/0 3/0to3/1 3/1to3/2 3/2to3/3 3/3to3/4 3/4to3/5 3/5to3/6 3/6to3/7 3/7to4/7 4/7to5/7 5/7to6/7 6/7to7/7 7/7to6/7"/>
    </vehicle>
     <vehicle id="bus66" type="busType" depart="66.00">
        <route edges="2/8to2/7 2/7to2/6 2/6to2/5 2/5to3/5 3/5to4/5 4/5to5/5 5/5to4/5"/>
    </vehicle>
     <vehicle id="bus67" type="busType" depart="67.00">
        <route edges="3/7to4/7 4/7to4/8 4/8to4/9"/>
    </vehicle>
     <vehicle id="bus68" type="busType" depart="68.00">
        <route edges="0/4to0/5 0/5to1/5 1/5to0/5"/>
    </vehicle>
     <vehicle id="bus69" type="busType" depart="69.00">
        <route edges="5/6to6/6 6/6to7/6 7/6to6/6"/>
    </vehicle>
     <vehicle id="bus70" type="busType" depart="70.00">
        <route edges="2/3to2/4 2/4to2/5 2/5to2/6 2/6to1/6"/>
    </vehicle>
     <vehicle id="bus71" type="busType" depart="71.00">
        <route edges="8/2to9/2 9/2to8/2 8/2to7/2 7/2to6/2 6/2to5/2 5/2to4/2 4/2to3/2 3/2to3/3 3/3to3/4 3/4to3/5 3/5to3/6 3/6to3/7 3/7to3/8 3/8to3/9"/>
    </vehicle>
     <vehicle id="bus72" type="busType" depart="72.00">
        <route edges="1/8to1/7 1/7to1/6 1/6to2/6 2/6to3/6 3/6to4/6 4/6to5/6 5/6to6/6 6/6to7/6 7/6to8/6 8/6to9/6 9/6to8/6"/>
    </vehicle>
     <vehicle id="bus73" type="busType" depart="73.00">
        <route edges="4/6to4/7 4/7to4/6 4/6to4/5 4/5to5/5 5/5to6/5 6/5to7/5 7/5to7/4"/>
    </vehicle>
     <vehicle id="bus74" type="busType" depart="74.00">
        <route edges="5/5to6/5 6/5to5/5 5/5to4/5 4/5to3/5 3/5to2/5 2/5to2/4 2/4to2/3 2/3to1/3"/>
    </vehicle>
     <vehicle id="bus75" type="busType" depart="75.00">
        <route edges="5/5to5/4 5/4to5/3 5/3to5/2 5/2to6/2 6/2to7/2 7/2to8/2 8/2to8/3"/>
    </vehicle>
     <vehicle id="bus76" type="busType" depart="76.00">
        <route edges="9/6to8/6 8/6to7/6 7/6to7/7"/>
    </vehicle>
     <vehicle id="bus77" type="busType" depart="77.00">
        <route edges="8/4to9/4 9/4to8/4 8/4to7/4 7/4to6/4 6/4to5/4 5/4to4/4 4/4to3/4"/>
    </vehicle>
     <vehicle id="bus78" type="busType" depart="78.00">
        <route edges="5/3to5/4 5/4to6/4 6/4to5/4"/>
    </vehicle>
     <vehicle id="bus79" type="busType" depart="79.00">
        <route edges="8/7to7/7 7/7to7/8 7/8to7/9 7/9to8/9"/>
    </vehicle>
     <vehicle id="bus80" type="busType" depart="80.00">
        <route edges="2/0to2/1 2/1to3/1 3/1to4/1 4/1to5/1 5/1to6/1 6/1to6/0"/>
    </vehicle>
     <vehicle id="bus81" type="busType" depart="81.00">
        <route edges="9/1to9/0 9/0to8/0 8/0to7/0 7/0to6/0 6/0to5/0 5/0to4/0 4/0to3/0 3/0to2/0 2/0to1/0 1/0to1/1 1/1to0/1 0/1to0/2 0/2to0/3 0/3to0/4 0/4to0/5 0/5to0/6 0/6to1/6"/>
    </vehicle>
     <vehicle id="bus82" type="busType" depart="82.00">
        <route edges="2/4to3/4 3/4to3/5 3/5to3/6 3/6to4/6 4/6to5/6 5/6to6/6 6/6to7/6 7/6to7/5"/>
    </vehicle>
     <vehicle id="bus83" type="busType" depart="83.00">
        <route edges="1/5to0/5 0/5to0/6 0/6to1/6 1/6to2/6 2/6to3/6 3/6to3/5"/>
    </vehicle>
     <vehicle id="bus84" type="busType" depart="84.00">
        <route edges="1/2to2/2 2/2to2/1 2/1to2/0 2/0to3/0 3/0to4/0 4/0to5/0 5/0to4/0"/>
    </vehicle>
     <vehicle id="bus85" type="busType" depart="85.00">
        <route edges="9/2to9/3 9/3to8/3 8/3to7/3 7/3to6/3 6/3to5/3 5/3to4/3 4/3to3/3 3/3to2/3 2/3to1/3 1/3to0/3 0/3to0/4"/>
    </vehicle>
     <vehicle id="bus86" type="busType" depart="86.00">
        <route edges="7/1to7/0 7/0to6/0 6/0to5/0 5/0to4/0 4/0to3/0 3/0to2/0 2/0to1/0 1/0to1/1 1/1to1/2 1/2to1/3 1/3to1/4 1/4to1/5 1/5to1/6 1/6to1/7 1/7to1/8"/>
    </vehicle>
     <vehicle id="bus87" type="busType" depart="87.00">
        <route edges="6/0to7/0 7/0to6/0 6/0to5/0 5/0to4/0 4/0to3/0 3/0to3/1 3/1to3/2 3/2to3/3 3/3to3/4 3/4to3/5 3/5to4/5"/>
    </vehicle>
     <vehicle id="bus88" type="busType" depart="88.00">
        <route edges="8/2to7/2 7/2to6/2 6/2to5/2"/>
    </vehicle>
     <vehicle id="bus89" type="busType" depart="89.00">
        <route edges="4/0to4/1 4/1to3/1 3/1to3/2 3/2to3/3 3/3to3/4 3/4to3/5 3/5to3/6 3/6to3/7 3/7to3/8 3/8to3/9 3/9to4/9"/>
    </vehicle>
     <vehicle id="bus90" type="busType" depart="90.00">
        <route edges="7/9to7/8 7/8to6/8 6/8to5/8 5/8to4/8 4/8to3/8 3/8to3/7 3/7to3/6 3/6to3/5 3/5to3/4 3/4to3/3 3/3to4/3"/>
    </vehicle>
     <vehicle id="bus91" type="busType" depart="91.00">
        <route edges="7/9to6/9 6/9to6/8 6/8to6/7 6/7to6/6 6/6to6/5 6/5to6/4 6/4to6/3 6/3to7/3 7/3to8/3 8/3to9/3 9/3to9/2"/>
    </vehicle>
     <vehicle id="bus92" type="busType" depart="92.00">
        <route edges="4/2to4/3 4/3to3/3 3/3to2/3 2/3to2/4 2/4to2/5 2/5to2/6 2/6to2/7 2/7to2/6"/>
    </vehicle>
     <vehicle id="bus93" type="busType" depart="93.00">
        <route edges="6/9to5/9 5/9to4/9 4/9to3/9 3/9to2/9 2/9to2/8 2/8to2/7 2/7to2/6"/>
    </vehicle>
     <vehicle id="bus94" type="busType" depart="94.00">
        <route edges="1/3to1/2 1/2to1/1 1/1to1/0 1/0to2/0 2/0to3/0 3/0to4/0 4/0to3/0"/>
    </vehicle>
     <vehicle id="bus95" type="busType" depart="95.00">
        <route edges="8/8to7/8 7/8to6/8 6/8to5/8 5/8to4/8 4/8to3/8 3/8to2/8 2/8to1/8 1/8to1/7 1/7to1/6 1/6to1/5 1/5to1/4"/>
    </vehicle>
     <vehicle id="bus96" type="busType" depart="96.00">
        <route edges="4/4to3/4 3/4to3/5 3/5to3/6 3/6to3/7 3/7to3/8 3/8to3/9 3/9to4/9 4/9to5/9 5/9to6/9 6/9to7/9 7/9to8/9 8/9to9/9 9/9to8/9"/>
    </vehicle>
     <vehicle id="bus97" type="busType" depart="97.00">
        <route edges="6/6to7/6 7/6to7/7 7/7to7/8 7/8to8/8 8/8to9/8 9/8to9/9"/>
    </vehicle>
     <vehicle id="bus98" type="busType" depart="98.00">
        <route edges="8/3to8/2 8/2to7/2 7/2to6/2 6/2to5/2 5/2to4/2 4/2to3/2 3/2to3/3 3/3to3/4 3/4to3/5 3/5to3/6 3/6to4/6"/>
    </vehicle>
     <vehicle id="bus99" type="busType" depart="99.00">
        <route edges="3/1to3/2 3/2to4/2 4/2to5/2 5/2to6/2 6/2to7/2 7/2to8/2 8/2to9/2 9/2to9/3"/>
    </vehicle>
     <vehicle id="bus100" type="busType" depart="100.00">
        <route edges="9/8to9/9 9/9to8/9 8/9to7/9 7/9to6/9 6/9to5/9 5/9to4/9 4/9to4/8 4/8to4/7 4/7to4/6 4/6to4/5 4/5to4/4 4/4to4/3 4/3to4/2 4/2to3/2"/>
    </vehicle>
     <vehicle id="bus101" type="busType" depart="101.00">
        <route edges="2/0to3/0 3/0to2/0 2/0to2/1 2/1to2/2 2/2to2/3 2/3to2/4 2/4to1/4"/>
    </vehicle>
     <vehicle id="bus102" type="busType" depart="102.00">
        <route edges="6/7to6/6 6/6to5/6 5/6to4/6 4/6to4/5 4/5to4/4 4/4to4/3 4/3to4/2 4/2to4/1 4/1to4/0 4/0to5/0"/>
    </vehicle>
     <vehicle id="bus103" type="busType" depart="103.00">
        <route edges="5/6to6/6 6/6to5/6 5/6to4/6 4/6to3/6 3/6to2/6 2/6to1/6 1/6to0/6 0/6to0/5"/>
    </vehicle>
     <vehicle id="bus104" type="busType" depart="104.00">
        <route edges="8/1to8/2 8/2to7/2 7/2to6/2 6/2to5/2 5/2to4/2 4/2to3/2 3/2to3/3 3/3to3/4 3/4to3/5 3/5to2/5"/>
    </vehicle>
     <vehicle id="bus105" type="busType" depart="105.00">
        <route edges="6/0to7/0 7/0to6/0 6/0to5/0 5/0to5/1 5/1to5/0"/>
    </vehicle>
     <vehicle id="bus106" type="busType" depart="106.00">
        <route edges="5/2to5/1 5/1to4/1 4/1to3/1 3/1to2/1 2/1to2/2 2/2to2/3 2/3to2/4"/>
    </vehicle>
     <vehicle id="bus107" type="busType" depart="107.00">
        <route edges="9/8to9/7 9/7to9/6 9/6to9/5 9/5to9/4 9/4to9/3 9/3to8/3"/>
    </vehicle>
     <vehicle id="bus108" type="busType" depart="108.00">
        <route edges="5/2to5/1 5/1to4/1 4/1to3/1 3/1to2/1 2/1to2/2 2/2to2/3 2/3to2/4 2/4to2/5 2/5to1/5"/>
    </vehicle>
     <vehicle id="bus109" type="busType" depart="109.00">
        <route edges="8/1to7/1 7/1to6/1 6/1to5/1 5/1to4/1 4/1to3/1 3/1to2/1 2/1to2/2 2/2to2/3 2/3to3/3"/>
    </vehicle>
     <vehicle id="bus110" type="busType" depart="110.00">
        <route edges="9/8to9/7 9/7to8/7 8/7to7/7 7/7to6/7 6/7to5/7 5/7to4/7 4/7to3/7 3/7to2/7 2/7to1/7 1/7to0/7 0/7to0/8 0/8to0/9"/>
    </vehicle>
     <vehicle id="bus111" type="busType" depart="111.00">
        <route edges="1/0to0/0 0/0to0/1 0/1to0/2 0/2to0/3 0/3to0/4 0/4to0/5 0/5to0/6 0/6to0/7 0/7to0/8 0/8to1/8 1/8to1/9 1/9to2/9 2/9to3/9 3/9to4/9 4/9to5/9 5/9to6/9 6/9to7/9 7/9to8/9 8/9to9/9 9/9to9/8"/>
    </vehicle>
     <vehicle id="bus112" type="busType" depart="112.00">
        <route edges="5/4to5/3 5/3to5/4 5/4to5/5 5/5to5/6 5/6to5/7 5/7to5/8 5/8to6/8 6/8to6/9"/>
    </vehicle>
     <vehicle id="bus113" type="busType" depart="113.00">
        <route edges="6/0to7/0 7/0to6/0 6/0to5/0 5/0to5/1"/>
    </vehicle>
     <vehicle id="bus114" type="busType" depart="114.00">
        <route edges="4/7to5/7 5/7to4/7 4/7to3/7 3/7to2/7 2/7to1/7 1/7to0/7 0/7to0/6 0/6to0/5 0/5to0/4 0/4to0/3"/>
    </vehicle>
     <vehicle id="bus115" type="busType" depart="115.00">
        <route edges="7/1to7/0 7/0to6/0 6/0to5/0 5/0to4/0 4/0to3/0 3/0to2/0 2/0to1/0 1/0to1/1 1/1to1/2 1/2to1/3 1/3to1/4 1/4to1/5 1/5to2/5"/>
    </vehicle>
     <vehicle id="bus116" type="busType" depart="116.00">
        <route edges="6/0to7/0 7/0to6/0 6/0to5/0 5/0to4/0 4/0to3/0 3/0to2/0 2/0to2/1 2/1to2/2"/>
    </vehicle>
     <vehicle id="bus117" type="busType" depart="117.00">
        <route edges="6/9to7/9 7/9to6/9 6/9to5/9 5/9to4/9 4/9to3/9 3/9to2/9 2/9to1/9 1/9to1/8 1/8to1/7 1/7to1/6 1/6to1/5 1/5to1/4 1/4to1/3 1/3to1/2 1/2to1/1 1/1to1/0"/>
    </vehicle>
     <vehicle id="bus118" type="busType" depart="118.00">
        <route edges="2/3to1/3 1/3to2/3 2/3to3/3 3/3to4/3 4/3to5/3 5/3to6/3 6/3to6/4"/>
    </vehicle>
     <vehicle id="bus119" type="busType" depart="119.00">
        <route edges="4/8to5/8 5/8to6/8 6/8to7/8 7/8to8/8 8/8to7/8"/>
    </vehicle>
     <vehicle id="bus120" type="busType" depart="120.00">
        <route edges="2/1to2/2 2/2to3/2 3/2to4/2 4/2to5/2 5/2to6/2 6/2to7/2 7/2to8/2 8/2to9/2 9/2to9/3"/>
    </vehicle>
     <vehicle id="bus121" type="busType" depart="121.00">
        <route edges="8/9to9/9 9/9to8/9 8/9to8/8 8/8to8/7 8/7to8/6 8/6to8/5 8/5to8/4 8/4to8/5"/>
    </vehicle>
     <vehicle id="bus122" type="busType" depart="122.00">
        <route edges="0/0to0/1 0/1to0/2 0/2to0/3 0/3to0/4 0/4to1/4 1/4to2/4 2/4to3/4 3/4to4/4 4/4to5/4 5/4to6/4"/>
    </vehicle>
     <vehicle id="bus123" type="busType" depart="123.00">
        <route edges="4/9to3/9 3/9to2/9 2/9to2/8 2/8to2/7 2/7to2/6 2/6to2/5 2/5to2/4 2/4to2/3 2/3to2/2 2/2to2/1 2/1to2/0"/>
    </vehicle>
     <vehicle id="bus124" type="busType" depart="124.00">
        <route edges="5/6to4/6 4/6to4/5 4/5to4/4 4/4to4/3 4/3to4/2 4/2to5/2 5/2to6/2 6/2to7/2 7/2to8/2 8/2to9/2 9/2to9/3"/>
    </vehicle>
     <vehicle id="bus125" type="busType" depart="125.00">
        <route edges="7/6to6/6 6/6to6/5 6/5to6/4 6/4to6/3 6/3to6/2 6/2to6/1 6/1to6/0"/>
    </vehicle>
     <vehicle id="bus126" type="busType" depart="126.00">
        <route edges="7/0to7/1 7/1to6/1 6/1to5/1 5/1to4/1 4/1to3/1 3/1to2/1 2/1to2/0"/>
    </vehicle>
     <vehicle id="bus127" type="busType" depart="127.00">
        <route edges="8/1to8/0 8/0to7/0 7/0to6/0 6/0to5/0 5/0to4/0 4/0to3/0 3/0to2/0 2/0to1/0 1/0to1/1 1/1to0/1"/>
    </vehicle>
     <vehicle id="bus128" type="busType" depart="128.00">
        <route edges="0/5to0/4 0/4to0/5 0/5to0/6 0/6to0/7 0/7to0/8 0/8to1/8 1/8to2/8 2/8to3/8 3/8to4/8 4/8to5/8 5/8to6/8 6/8to7/8 7/8to8/8 8/8to8/9"/>
    </vehicle>
     <vehicle id="bus129" type="busType" depart="129.00">
        <route edges="7/7to8/7 8/7to7/7 7/7to6/7 6/7to5/7 5/7to4/7 4/7to3/7 3/7to2/7 2/7to1/7 1/7to0/7 0/7to0/8 0/8to0/9 0/9to1/9"/>
    </vehicle>
     <vehicle id="bus130" type="busType" depart="130.00">
        <route edges="5/9to6/9 6/9to5/9 5/9to4/9 4/9to3/9 3/9to2/9 2/9to1/9 1/9to1/8 1/8to1/7 1/7to1/6 1/6to1/5 1/5to1/4 1/4to0/4"/>
    </vehicle>
     <vehicle id="bus131" type="busType" depart="131.00">
        <route edges="7/3to7/2 7/2to6/2 6/2to5/2 5/2to4/2 4/2to3/2 3/2to2/2 2/2to2/3 2/3to2/4 2/4to3/4"/>
    </vehicle>
     <vehicle id="bus132" type="busType" depart="132.00">
        <route edges="4/6to5/6 5/6to4/6 4/6to3/6 3/6to2/6 2/6to2/5 2/5to2/4 2/4to2/3 2/3to3/3"/>
    </vehicle>
     <vehicle id="bus133" type="busType" depart="133.00">
        <route edges="3/1to3/0 3/0to3/1 3/1to3/2 3/2to3/3 3/3to3/4 3/4to3/5 3/5to3/6 3/6to3/7 3/7to4/7 4/7to5/7 5/7to6/7 6/7to6/6"/>
    </vehicle>
     <vehicle id="bus134" type="busType" depart="134.00">
        <route edges="0/3to0/2 0/2to0/1 0/1to1/1 1/1to1/0 1/0to2/0 2/0to3/0 3/0to4/0 4/0to5/0 5/0to5/1"/>
    </vehicle>
     <vehicle id="bus135" type="busType" depart="135.00">
        <route edges="4/4to4/3 4/3to3/3 3/3to2/3 2/3to1/3 1/3to1/4 1/4to1/5 1/5to1/6 1/6to1/7 1/7to1/8 1/8to1/9 1/9to1/8"/>
    </vehicle>
     <vehicle id="bus136" type="busType" depart="136.00">
        <route edges="9/8to8/8 8/8to7/8 7/8to6/8 6/8to5/8 5/8to5/7 5/7to5/6 5/6to5/5 5/5to5/4 5/4to4/4"/>
    </vehicle>
     <vehicle id="bus137" type="busType" depart="137.00">
        <route edges="1/7to1/8 1/8to1/7 1/7to1/6 1/6to1/5 1/5to1/4 1/4to1/3 1/3to2/3 2/3to3/3 3/3to4/3 4/3to5/3 5/3to6/3 6/3to7/3 7/3to8/3"/>
    </vehicle>
     <vehicle id="bus138" type="busType" depart="138.00">
        <route edges="4/0to4/1 4/1to4/2 4/2to4/3 4/3to4/4 4/4to4/5 4/5to4/6 4/6to4/7 4/7to4/8 4/8to5/8 5/8to6/8 6/8to7/8 7/8to8/8 8/8to8/7"/>
    </vehicle>
     <vehicle id="bus139" type="busType" depart="139.00">
        <route edges="1/4to2/4 2/4to2/3 2/3to2/2 2/2to2/1 2/1to2/0 2/0to3/0 3/0to2/0"/>
    </vehicle>
     <vehicle id="bus140" type="busType" depart="140.00">
        <route edges="8/0to8/1 8/1to7/1 7/1to6/1 6/1to5/1 5/1to5/0 5/0to4/0"/>
    </vehicle>
     <vehicle id="bus141" type="busType" depart="141.00">
        <route edges="7/0to7/1 7/1to6/1 6/1to5/1 5/1to4/1 4/1to4/2 4/2to4/3 4/3to4/4 4/4to4/5"/>
    </vehicle>
     <vehicle id="bus142" type="busType" depart="142.00">
        <route edges="0/4to0/3 0/3to0/2 0/2to1/2 1/2to2/2 2/2to3/2 3/2to4/2 4/2to5/2 5/2to6/2 6/2to7/2 7/2to8/2 8/2to9/2 9/2to9/3"/>
    </vehicle>
     <vehicle id="bus143" type="busType" depart="143.00">
        <route edges="6/8to7/8 7/8to6/8 6/8to5/8 5/8to4/8 4/8to3/8 3/8to2/8 2/8to2/7"/>
    </vehicle>
     <vehicle id="bus144" type="busType" depart="144.00">
        <route edges="0/3to1/3 1/3to1/4 1/4to1/5 1/5to2/5 2/5to3/5 3/5to4/5 4/5to5/5 5/5to6/5 6/5to7/5 7/5to6/5"/>
    </vehicle>
     <vehicle id="bus145" type="busType" depart="145.00">
        <route edges="8/6to8/5 8/5to7/5 7/5to6/5 6/5to5/5 5/5to4/5 4/5to3/5 3/5to2/5 2/5to2/4 2/4to2/3 2/3to2/2 2/2to3/2"/>
    </vehicle>
     <vehicle id="bus146" type="busType" depart="146.00">
        <route edges="5/7to5/6 5/6to5/7 5/7to5/8 5/8to6/8 6/8to7/8 7/8to8/8 8/8to7/8"/>
    </vehicle>
     <vehicle id="bus147" type="busType" depart="147.00">
        <route edges="0/3to0/2 0/2to0/3 0/3to1/3 1/3to0/3"/>
    </vehicle>
     <vehicle id="bus148" type="busType" depart="148.00">
        <route edges="5/6to4/6 4/6to3/6 3/6to2/6 2/6to2/5 2/5to2/4 2/4to2/3 2/3to3/3"/>
    </vehicle>
     <vehicle id="bus149" type="busType" depart="149.00">
        <route edges="5/3to5/2 5/2to4/2 4/2to3/2 3/2to2/2 2/2to1/2 1/2to1/3 1/3to1/4 1/4to1/5 1/5to1/6 1/6to2/6"/>
    </vehicle>
     <vehicle id="bus150" type="busType" depart="150.00">
        <route edges="9/5to8/5 8/5to7/5 7/5to7/4 7/4to8/4"/>
    </vehicle>
     <vehicle id="bus151" type="busType" depart="151.00">
        <route edges="2/4to2/5 2/5to1/5 1/5to1/4 1/4to1/3 1/3to1/2 1/2to1/1"/>
    </vehicle>
     <vehicle id="bus152" type="busType" depart="152.00">
        <route edges="3/8to3/7 3/7to2/7 2/7to1/7 1/7to0/7 0/7to0/6 0/6to0/5 0/5to0/4 0/4to0/3 0/3to0/2 0/2to0/1 0/1to0/0"/>
    </vehicle>
     <vehicle id="bus153" type="busType" depart="153.00">
        <route edges="0/9to1/9 1/9to1/8 1/8to0/8 0/8to0/7 0/7to0/6 0/6to0/5 0/5to0/6"/>
    </vehicle>
     <vehicle id="bus154" type="busType" depart="154.00">
        <route edges="7/2to8/2 8/2to7/2 7/2to6/2 6/2to5/2 5/2to4/2 4/2to3/2 3/2to2/2 2/2to1/2 1/2to1/3 1/3to1/4 1/4to1/5 1/5to1/6 1/6to2/6"/>
    </vehicle>
     <vehicle id="bus155" type="busType" depart="155.00">
        <route edges="2/3to2/2 2/2to1/2 1/2to1/3 1/3to1/4 1/4to1/3"/>
    </vehicle>
     <vehicle id="bus156" type="busType" depart="156.00">
        <route edges="9/6to8/6 8/6to7/6 7/6to6/6 6/6to5/6 5/6to4/6 4/6to3/6 3/6to2/6 2/6to2/5 2/5to2/4 2/4to2/3 2/3to2/2 2/2to2/1 2/1to2/0 2/0to2/1"/>
    </vehicle>
     <vehicle id="bus157" type="busType" depart="157.00">
        <route edges="0/8to0/7 0/7to0/6 0/6to1/6 1/6to2/6 2/6to3/6 3/6to4/6 4/6to5/6 5/6to6/6 6/6to7/6 7/6to7/7"/>
    </vehicle>
     <vehicle id="bus158" type="busType" depart="158.00">
        <route edges="4/0to5/0 5/0to4/0 4/0to3/0 3/0to2/0 2/0to1/0 1/0to1/1 1/1to0/1 0/1to0/2 0/2to0/3 0/3to0/4 0/4to0/5 0/5to0/6 0/6to0/5"/>
    </vehicle>
     <vehicle id="bus159" type="busType" depart="159.00">
        <route edges="7/9to7/8 7/8to6/8 6/8to5/8 5/8to4/8 4/8to4/7 4/7to4/6 4/6to4/5 4/5to4/4 4/4to4/3 4/3to4/2 4/2to4/3"/>
    </vehicle>
     <vehicle id="bus160" type="busType" depart="160.00">
        <route edges="4/9to3/9 3/9to3/8 3/8to3/7 3/7to2/7"/>
    </vehicle>
     <vehicle id="bus161" type="busType" depart="161.00">
        <route edges="4/2to5/2 5/2to5/3 5/3to5/4 5/4to5/5 5/5to5/6 5/6to5/7 5/7to6/7 6/7to7/7 7/7to8/7 8/7to8/8"/>
    </vehicle>
     <vehicle id="bus162" type="busType" depart="162.00">
        <route edges="1/2to0/2 0/2to0/3 0/3to0/4 0/4to0/5 0/5to0/6 0/6to0/7 0/7to0/8 0/8to1/8 1/8to1/9 1/9to2/9 2/9to3/9 3/9to4/9 4/9to5/9 5/9to6/9 6/9to7/9 7/9to8/9 8/9to9/9"/>
    </vehicle>
     <vehicle id="bus163" type="busType" depart="163.00">
        <route edges="5/4to5/5 5/5to4/5 4/5to4/6 4/6to4/5"/>
    </vehicle>
     <vehicle id="bus164" type="busType" depart="164.00">
        <route edges="8/7to9/7 9/7to9/6 9/6to8/6"/>
    </vehicle>
     <vehicle id="bus165" type="busType" depart="165.00">
        <route edges="0/1to0/0 0/0to0/1 0/1to0/2 0/2to0/3 0/3to0/4 0/4to0/5 0/5to0/6 0/6to0/7 0/7to1/7 1/7to2/7 2/7to3/7 3/7to4/7 4/7to5/7"/>
    </vehicle>
     <vehicle id="bus166" type="busType" depart="166.00">
        <route edges="4/2to3/2 3/2to2/2 2/2to1/2 1/2to0/2 0/2to0/1 0/1to0/0 0/0to1/0"/>
    </vehicle>
     <vehicle id="bus167" type="busType" depart="167.00">