<?xml version="1.0" encoding="UTF-8"?>

<!-- generated on Thu Mar 30 19:56:12 2017 by SUMO duarouter Version 0.28.0
<?xml version="1.0" encoding="UTF-8"?>

<configuration xmlns:xsi="http://www.w3.org/2001/XMLSchema-instance" xsi:noNamespaceSchemaLocation="http://sumo.dlr.de/xsd/duarouterConfiguration.xsd">

    <input>
        <net-file value="grid-1.net.xml"/>
        <additional-files value="bustype.add.xml"/>
        <trip-files value="trips.trips.xml"/>
    </input>

    <output>
        <output-file value="busroutes.rou.xml"/>
    </output>

    <processing>
        <ignore-errors value="true"/>
    </processing>

    <time>
        <begin value="0"/>
        <end value="600.0"/>
    </time>

    <report>
        <no-warnings value="true"/>
        <no-step-log value="true"/>
    </report>

</configuration>
-->

<routes xmlns:xsi="http://www.w3.org/2001/XMLSchema-instance" xsi:noNamespaceSchemaLocation="http://sumo.dlr.de/xsd/routes_file.xsd">
    <vType id="busType" maxSpeed="27.00" vClass="bus"/>
    <vehicle id="bus0" type="busType" depart="0.00">
        <route edges="0/5to1/5 1/5to1/6 1/6to1/7 1/7to2/7 2/7to3/7 3/7to3/8"/>
    </vehicle>
    <vehicle id="bus1" type="busType" depart="20.00">
        <route edges="2/5to2/6 2/6to2/7 2/7to2/8 2/8to2/9 2/9to3/9 3/9to4/9 4/9to5/9"/>
    </vehicle>
    <vehicle id="bus2" type="busType" depart="40.00">
        <route edges="4/2to3/2 3/2to3/3 3/3to3/4 3/4to3/5 3/5to3/6 3/6to3/7 3/7to3/8 3/8to3/9 3/9to4/9"/>
    </vehicle>
    <vehicle id="bus3" type="busType" depart="60.00">
        <route edges="2/3to2/2 2/2to2/3 2/3to2/4 2/4to2/5 2/5to2/6 2/6to2/7 2/7to2/8 2/8to2/9 2/9to3/9 3/9to4/9 4/9to5/9 5/9to6/9 6/9to7/9 7/9to6/9"/>
    </vehicle>
    <vehicle id="bus4" type="busType" depart="80.00">
        <route edges="9/2to9/3 9/3to8/3 8/3to7/3 7/3to7/4 7/4to7/5 7/5to7/6 7/6to7/5"/>
    </vehicle>
    <vehicle id="bus5" type="busType" depart="100.00">
        <route edges="5/7to4/7 4/7to4/6 4/6to4/5 4/5to4/4 4/4to4/3 4/3to4/2 4/2to5/2 5/2to6/2 6/2to7/2 7/2to7/1"/>
    </vehicle>
    <vehicle id="bus6" type="busType" depart="120.00">
        <route edges="6/1to7/1 7/1to8/1 8/1to7/1"/>
    </vehicle>
    <vehicle id="bus7" type="busType" depart="140.00">
        <route edges="7/9to7/8 7/8to7/7 7/7to7/6 7/6to7/5 7/5to7/4 7/4to7/3 7/3to7/2 7/2to8/2 8/2to9/2 9/2to8/2"/>
    </vehicle>
    <vehicle id="bus8" type="busType" depart="160.00">
        <route edges="5/1to6/1 6/1to5/1 5/1to4/1 4/1to3/1 3/1to2/1 2/1to1/1 1/1to1/2 1/2to1/3 1/3to1/4 1/4to1/5 1/5to1/6"/>
    </vehicle>
    <vehicle id="bus9" type="busType" depart="180.00">
        <route edges="4/1to3/1 3/1to3/0 3/0to4/0 4/0to5/0 5/0to6/0 6/0to5/0"/>
    </vehicle>
    <vehicle id="bus10" type="busType" depart="200.00">
        <route edges="7/8to6/8 6/8to5/8 5/8to4/8 4/8to3/8 3/8to2/8 2/8to1/8 1/8to0/8 0/8to0/7"/>
    </vehicle>
    <vehicle id="bus11" type="busType" depart="220.00">
        <route edges="7/9to7/8 7/8to6/8 6/8to5/8 5/8to4/8 4/8to4/7"/>
    </vehicle>
    <vehicle id="bus12" type="busType" depart="240.00">
        <route edges="9/6to9/5 9/5to8/5 8/5to7/5 7/5to6/5"/>
    </vehicle>
    <vehicle id="bus13" type="busType" depart="260.00">
        <route edges="1/5to1/6 1/6to1/5 1/5to1/4 1/4to2/4 2/4to3/4 3/4to4/4 4/4to5/4 5/4to6/4 6/4to7/4 7/4to8/4 8/4to8/3"/>
    </vehicle>
    <vehicle id="bus14" type="busType" depart="280.00">
        <route edges="4/4to5/4 5/4to5/3 5/3to5/2 5/2to5/1 5/1to6/1 6/1to7/1 7/1to8/1 8/1to8/2"/>
    </vehicle>
    <vehicle id="bus15" type="busType" depart="300.00">
        <route edges="1/0to1/1 1/1to1/2 1/2to1/3 1/3to1/4 1/4to1/5 1/5to1/6 1/6to1/7 1/7to1/8 1/8to1/7"/>
    </vehicle>
    <vehicle id="bus16" type="busType" depart="320.00">
        <route edges="3/1to4/1 4/1to3/1 3/1to2/1 2/1to1/1 1/1to1/2 1/2to1/3"/>
    </vehicle>
    <vehicle id="bus17" type="busType" depart="340.00">
        <route edges="7/2to7/3 7/3to6/3 6/3to5/3 5/3to4/3 4/3to4/4 4/4to4/5 4/5to4/6 4/6to3/6"/>
    </vehicle>
    <vehicle id="bus18" type="busType" depart="360.00">
        <route edges="1/9to2/9 2/9to2/8 2/8to2/7 2/7to2/6 2/6to2/5 2/5to2/4 2/4to2/3 2/3to2/2 2/2to2/1 2/1to3/1 3/1to4/1 4/1to4/0"/>
    </vehicle>
    <vehicle id="bus19" type="busType" depart="380.00">
        <route edges="3/8to2/8 2/8to1/8 1/8to0/8 0/8to0/7 0/7to0/6 0/6to0/7"/>
    </vehicle>
    <vehicle id="bus20" type="busType" depart="400.00">
        <route edges="8/6to8/7 8/7to8/6 8/6to8/5 8/5to8/4 8/4to8/3 8/3to8/4"/>
    </vehicle>
    <vehicle id="bus21" type="busType" depart="420.00">
        <route edges="3/7to2/7 2/7to2/6 2/6to2/5 2/5to2/4 2/4to3/4 3/4to4/4 4/4to5/4 5/4to6/4 6/4to6/3"/>
    </vehicle>
    <vehicle id="bus22" type="busType" depart="440.00">
        <route edges="8/9to9/9 9/9to8/9 8/9to7/9 7/9to7/8 7/8to7/7 7/7to7/6 7/6to7/5 7/5to7/4 7/4to7/3 7/3to7/2"/>
    </vehicle>
    <vehicle id="bus23" type="busType" depart="460.00">
        <route edges="5/0to5/1 5/1to4/1 4/1to3/1 3/1to2/1 2/1to1/1 1/1to1/2 1/2to1/3 1/3to1/4 1/4to1/3"/>
    </vehicle>
    <vehicle id="bus24" type="busType" depart="480.00">
        <route edges="1/4to0/4 0/4to0/3 0/3to0/2 0/2to0/1 0/1to1/1 1/1to1/0 1/0to2/0 2/0to3/0 3/0to4/0 4/0to5/0 5/0to5/1"/>
    </vehicle>
    <vehicle id="bus25" type="busType" depart="500.00">
        <route edges="2/9to1/9 1/9to1/8 1/8to2/8 2/8to3/8"/>
    </vehicle>
    <vehicle id="bus26" type="busType" depart="520.00">
        <route edges="2/7to1/7 1/7to1/6 1/6to2/6 2/6to3/6 3/6to4/6 4/6to5/6 5/6to6/6 6/6to7/6 7/6to8/6 8/6to7/6"/>
    </vehicle>
    <vehicle id="bus27" type="busType" depart="540.00">
        <route edges="2/9to1/9 1/9to1/8 1/8to1/7 1/7to1/6 1/6to2/6 2/6to3/6 3/6to4/6 4/6to5/6 5/6to6/6 6/6to7/6"/>
    </vehicle>
    <vehicle id="bus28" type="busType" depart="560.00">
        <route edges="9/0to9/1 9/1to9/2 9/2to9/3"/>
    </vehicle>
    <vehicle id="bus29" type="busType" depart="580.00">
        <route edges="2/1to1/1 1/1to2/1 2/1to3/1 3/1to4/1 4/1to5/1"/>
    </vehicle>
</routes>
