<additional>
  <vType id="busType" maxSpeed="27" vClass="bus"/>
</additional>