<?xml version="1.0"?>
<!-- generated on 2017-03-30 19:56:12.850867 by $Id: randomTrips.py 21557 2016-09-28 10:43:52Z luecken $
  options: <doubleminus>net-file=grid-1.net.xml <doubleminus>trip-attributes=type="busType" <doubleminus>additional-file bustype.add.xml <doubleminus>edge-permission bus -r busroutes.rou.xml -p 20 -e 600
-->
<trips>
    <trip id="0" depart="0.00" from="0/5to1/5" to="3/7to3/8" type="busType"/>
    <trip id="1" depart="20.00" from="2/5to2/6" to="4/9to5/9" type="busType"/>
    <trip id="2" depart="40.00" from="4/2to3/2" to="3/9to4/9" type="busType"/>
    <trip id="3" depart="60.00" from="2/3to2/2" to="7/9to6/9" type="busType"/>
    <trip id="4" depart="80.00" from="9/2to9/3" to="7/6to7/5" type="busType"/>
    <trip id="5" depart="100.00" from="5/7to4/7" to="7/2to7/1" type="busType"/>
    <trip id="6" depart="120.00" from="6/1to7/1" to="8/1to7/1" type="busType"/>
    <trip id="7" depart="140.00" from="7/9to7/8" to="9/2to8/2" type="busType"/>
    <trip id="8" depart="160.00" from="5/1to6/1" to="1/5to1/6" type="busType"/>
    <trip id="9" depart="180.00" from="4/1to3/1" to="6/0to5/0" type="busType"/>
    <trip id="10" depart="200.00" from="7/8to6/8" to="0/8to0/7" type="busType"/>
    <trip id="11" depart="220.00" from="7/9to7/8" to="4/8to4/7" type="busType"/>
    <trip id="12" depart="240.00" from="9/6to9/5" to="7/5to6/5" type="busType"/>
    <trip id="13" depart="260.00" from="1/5to1/6" to="8/4to8/3" type="busType"/>
    <trip id="14" depart="280.00" from="4/4to5/4" to="8/1to8/2" type="busType"/>
    <trip id="15" depart="300.00" from="1/0to1/1" to="1/8to1/7" type="busType"/>
    <trip id="16" depart="320.00" from="3/1to4/1" to="1/2to1/3" type="busType"/>
    <trip id="17" depart="340.00" from="7/2to7/3" to="4/6to3/6" type="busType"/>
    <trip id="18" depart="360.00" from="1/9to2/9" to="4/1to4/0" type="busType"/>
    <trip id="19" depart="380.00" from="3/8to2/8" to="0/6to0/7" type="busType"/>
    <trip id="20" depart="400.00" from="8/6to8/7" to="8/3to8/4" type="busType"/>
    <trip id="21" depart="420.00" from="3/7to2/7" to="6/4to6/3" type="busType"/>
    <trip id="22" depart="440.00" from="8/9to9/9" to="7/3to7/2" type="busType"/>
    <trip id="23" depart="460.00" from="5/0to5/1" to="1/4to1/3" type="busType"/>
    <trip id="24" depart="480.00" from="1/4to0/4" to="5/0to5/1" type="busType"/>
    <trip id="25" depart="500.00" from="2/9to1/9" to="2/8to3/8" type="busType"/>
    <trip id="26" depart="520.00" from="2/7to1/7" to="8/6to7/6" type="busType"/>
    <trip id="27" depart="540.00" from="2/9to1/9" to="6/6to7/6" type="busType"/>
    <trip id="28" depart="560.00" from="9/0to9/1" to="9/2to9/3" type="busType"/>
    <trip id="29" depart="580.00" from="2/1to1/1" to="4/1to5/1" type="busType"/>
</trips>
