<?xml version="1.0" encoding="UTF-8"?>

<!-- generated on Thu Mar 30 20:14:17 2017 by SUMO netgenerate Version 0.28.0
<?xml version="1.0" encoding="UTF-8"?>

<configuration xmlns:xsi="http://www.w3.org/2001/XMLSchema-instance" xsi:noNamespaceSchemaLocation="http://sumo.dlr.de/xsd/netgenerateConfiguration.xsd">

    <random_network>
        <rand value="true"/>
        <rand.iterations value="70"/>
    </random_network>

    <output>
        <output-file value="MySUMOFile.net.xml"/>
    </output>

    <building_defaults>
        <default.lanenumber value="3"/>
    </building_defaults>

</configuration>
-->

<net version="0.27" xmlns:xsi="http://www.w3.org/2001/XMLSchema-instance" xsi:noNamespaceSchemaLocation="http://sumo.dlr.de/xsd/net_file.xsd">

    <location netOffset="882.72,864.89" convBoundary="0.00,0.00,1780.38,1764.25" origBoundary="-882.72,-864.89,897.66,899.36" projParameter="!"/>

    <edge id=":1_0" function="internal">
        <lane id=":1_0_0" index="0" allow="bus" speed="13.90" length="5.38" shape="874.70,879.67 874.46,878.15 873.79,877.21 872.69,876.87 871.17,877.11"/>
    </edge>
    <edge id=":1_1" function="internal">
        <lane id=":1_1_0" index="0" allow="bus" speed="13.90" length="24.24" shape="874.70,879.67 874.61,872.69 874.40,867.91 873.71,863.18 872.19,856.38"/>
        <lane id=":1_1_1" index="1" speed="13.90" length="24.24" shape="878.00,879.62 877.91,872.43 877.68,867.49 876.97,862.62 875.40,855.61"/>
        <lane id=":1_1_2" index="2" speed="13.90" length="24.24" shape="881.30,879.57 881.20,872.16 880.97,867.08 880.23,862.06 878.61,854.84"/>
    </edge>
    <edge id=":1_4" function="internal">
        <lane id=":1_4_0" index="0" allow="bus" speed="13.90" length="9.01" shape="881.30,879.57 882.04,872.43 882.84,870.79"/>
    </edge>
    <edge id=":1_5" function="internal">
        <lane id=":1_5_0" index="0" allow="bus" speed="13.90" length="2.41" shape="881.30,879.57 882.10,878.32 882.92,877.89"/>
    </edge>
    <edge id=":1_24" function="internal">
        <lane id=":1_24_0" index="0" allow="bus" speed="13.90" length="14.89" shape="882.84,870.79 884.51,867.40 888.72,864.49 894.66,863.69"/>
    </edge>
    <edge id=":1_25" function="internal">
        <lane id=":1_25_0" index="0" allow="bus" speed="13.90" length="2.41" shape="882.92,877.89 883.75,878.29 884.60,879.51"/>
    </edge>
    <edge id=":1_6" function="internal">
        <lane id=":1_6_0" index="0" allow="bus" speed="13.90" length="7.40" shape="894.29,873.58 892.90,873.90 891.92,874.98 891.35,876.82 891.20,879.41"/>
    </edge>
    <edge id=":1_7" function="internal">
        <lane id=":1_7_0" index="0" allow="bus" speed="13.90" length="24.72" shape="894.29,873.58 887.32,873.46 882.53,873.88 877.85,875.04 871.17,877.11"/>
        <lane id=":1_7_1" index="1" speed="13.90" length="24.72" shape="894.41,870.29 887.11,870.15 882.10,870.59 877.19,871.79 870.19,873.96"/>
        <lane id=":1_7_2" index="2" speed="13.90" length="24.72" shape="894.54,866.99 886.90,866.85 881.66,867.29 876.53,868.54 869.21,870.81"/>
    </edge>
    <edge id=":1_10" function="internal">
        <lane id=":1_10_0" index="0" allow="bus" speed="13.90" length="21.71" shape="894.54,866.99 888.62,866.04 883.99,863.70 880.65,859.97 878.61,854.84"/>
    </edge>
    <edge id=":1_11" function="internal">
        <lane id=":1_11_0" index="0" allow="bus" speed="13.90" length="4.82" shape="894.54,866.99 893.33,866.12 892.95,865.28 893.40,864.47 894.66,863.69"/>
    </edge>
    <edge id=":1_12" function="internal">
        <lane id=":1_12_0" index="0" allow="bus" speed="13.90" length="8.75" shape="888.23,852.53 889.04,854.45 890.43,855.85 892.38,856.73 894.91,857.10"/>
    </edge>
    <edge id=":1_13" function="internal">
        <lane id=":1_13_0" index="0" allow="bus" speed="13.90" length="26.42" shape="888.23,852.53 890.00,860.38 890.82,865.83 891.09,871.36 891.20,879.41"/>
        <lane id=":1_13_1" index="1" speed="13.90" length="26.42" shape="885.03,853.30 886.74,860.94 887.54,866.25 887.79,871.62 887.90,879.46"/>
        <lane id=":1_13_2" index="2" speed="13.90" length="26.42" shape="881.82,854.07 883.48,861.50 884.25,866.66 884.50,871.89 884.60,879.51"/>
    </edge>
    <edge id=":1_16" function="internal">
        <lane id=":1_16_0" index="0" allow="bus" speed="13.90" length="6.84" shape="881.82,854.07 882.10,859.59 881.58,860.80"/>
    </edge>
    <edge id=":1_17" function="internal">
        <lane id=":1_17_0" index="0" allow="bus" speed="13.90" length="2.41" shape="881.82,854.07 881.30,855.47 880.60,856.06"/>
    </edge>
    <edge id=":1_26" function="internal">
        <lane id=":1_26_0" index="0" allow="bus" speed="13.90" length="16.61" shape="881.58,860.80 880.10,864.22 875.80,867.96 869.21,870.81"/>
    </edge>
    <edge id=":1_27" function="internal">
        <lane id=":1_27_0" index="0" allow="bus" speed="13.90" length="2.41" shape="880.60,856.06 879.70,855.85 878.61,854.84"/>
    </edge>
    <edge id=":1_18" function="internal">
        <lane id=":1_18_0" index="0" allow="bus" speed="13.90" length="8.38" shape="866.28,861.35 869.13,860.27 871.06,859.08 872.08,857.79 872.19,856.38"/>
    </edge>
    <edge id=":1_19" function="internal">
        <lane id=":1_19_0" index="0" allow="bus" speed="13.90" length="28.08" shape="866.28,861.35 874.55,858.80 880.36,857.41 886.28,856.93 894.91,857.10"/>
        <lane id=":1_19_1" index="1" speed="13.90" length="28.08" shape="867.26,864.50 875.21,862.05 880.79,860.70 886.49,860.23 894.79,860.39"/>
        <lane id=":1_19_2" index="2" speed="13.90" length="28.08" shape="868.23,867.66 875.87,865.29 881.23,864.00 886.70,863.54 894.66,863.69"/>
    </edge>
    <edge id=":1_22" function="internal">
        <lane id=":1_22_0" index="0" allow="bus" speed="13.90" length="24.95" shape="868.23,867.66 875.29,866.52 880.37,868.12 883.48,872.45 884.60,879.51"/>
    </edge>
    <edge id=":1_23" function="internal">
        <lane id=":1_23_0" index="0" allow="bus" speed="13.90" length="4.82" shape="868.23,867.66 869.66,868.08 870.30,868.74 870.15,869.65 869.21,870.81"/>
    </edge>
    <edge id=":10_0" function="internal">
        <lane id=":10_0_0" index="0" allow="bus" speed="13.90" length="5.98" shape="718.83,936.71 718.04,935.07 717.08,934.40 715.96,934.71 714.66,935.98"/>
    </edge>
    <edge id=":10_1" function="internal">
        <lane id=":10_1_0" index="0" allow="bus" speed="13.90" length="27.82" shape="718.83,936.71 716.62,929.31 714.88,924.14 712.06,919.73 706.57,914.59"/>
        <lane id=":10_1_1" index="1" speed="13.90" length="27.82" shape="721.96,935.68 719.57,927.75 717.65,922.24 714.57,917.53 708.65,912.03"/>
        <lane id=":10_1_2" index="2" speed="13.90" length="27.82" shape="725.10,934.64 722.51,926.19 720.42,920.33 717.08,915.34 710.74,909.47"/>
    </edge>
    <edge id=":10_4" function="internal">
        <lane id=":10_4_0" index="0" allow="bus" speed="13.90" length="12.12" shape="725.10,934.64 722.93,925.44 723.02,922.77"/>
    </edge>
    <edge id=":10_5" function="internal">
        <lane id=":10_5_0" index="0" allow="bus" speed="13.90" length="2.41" shape="725.10,934.64 725.49,933.21 726.15,932.56"/>
    </edge>
    <edge id=":10_24" function="internal">
        <lane id=":10_24_0" index="0" allow="bus" speed="13.90" length="16.10" shape="723.02,922.77 723.18,918.31 725.85,913.25 730.95,910.26"/>
    </edge>
    <edge id=":10_25" function="internal">
        <lane id=":10_25_0" index="0" allow="bus" speed="13.90" length="2.41" shape="726.15,932.56 727.06,932.69 728.23,933.61"/>
    </edge>
    <edge id=":10_6" function="internal">
        <lane id=":10_6_0" index="0" allow="bus" speed="13.90" length="12.52" shape="733.89,919.71 732.80,920.80 732.54,923.13 733.11,926.71 734.50,931.53"/>
    </edge>
    <edge id=":10_7" function="internal">
        <lane id=":10_7_0" index="0" allow="bus" speed="13.90" length="27.92" shape="733.89,919.71 726.90,922.43 722.67,925.53 719.25,929.78 714.66,935.98"/>
        <lane id=":10_7_1" index="1" speed="13.90" length="27.92" shape="732.91,916.56 725.36,919.47 720.76,922.76 717.03,927.29 712.06,933.95"/>
        <lane id=":10_7_2" index="2" speed="13.90" length="27.92" shape="731.93,913.41 723.82,916.51 718.85,919.98 714.81,924.80 709.46,931.91"/>
    </edge>
    <edge id=":10_10" function="internal">
        <lane id=":10_10_0" index="0" allow="bus" speed="13.90" length="22.49" shape="731.93,913.41 726.16,914.54 720.70,914.26 715.56,912.57 710.74,909.47"/>
    </edge>
    <edge id=":10_11" function="internal">
        <lane id=":10_11_0" index="0" allow="bus" speed="13.90" length="4.82" shape="731.93,913.41 730.50,912.99 729.86,912.32 730.01,911.41 730.95,910.26"/>
    </edge>
    <edge id=":10_12" function="internal">
        <lane id=":10_12_0" index="0" allow="bus" speed="13.90" length="12.71" shape="717.00,901.80 719.71,903.53 722.61,904.47 725.70,904.61 729.00,903.95"/>
    </edge>
    <edge id=":10_13" function="internal">
        <lane id=":10_13_0" index="0" allow="bus" speed="13.90" length="33.36" shape="717.00,901.80 723.98,908.45 728.34,914.89 731.41,922.21 734.50,931.53"/>
        <lane id=":10_13_1" index="1" speed="13.90" length="33.36" shape="714.91,904.36 721.72,910.77 725.73,916.68 728.44,923.49 731.36,932.57"/>
        <lane id=":10_13_2" index="2" speed="13.90" length="33.36" shape="712.83,906.92 719.47,913.09 723.12,918.48 725.47,924.76 728.23,933.61"/>
    </edge>
    <edge id=":10_16" function="internal">
        <lane id=":10_16_0" index="0" allow="bus" speed="13.90" length="6.84" shape="712.83,906.92 716.33,911.51 716.44,912.57"/>
    </edge>
    <edge id=":10_17" function="internal">
        <lane id=":10_17_0" index="0" allow="bus" speed="13.90" length="2.57" shape="712.83,906.92 713.26,908.34 713.06,909.24 712.91,909.30"/>
    </edge>
    <edge id=":10_26" function="internal">
        <lane id=":10_26_0" index="0" allow="bus" speed="13.90" length="21.29" shape="716.44,912.57 716.93,917.20 714.65,924.01 709.46,931.91"/>
    </edge>
    <edge id=":10_27" function="internal">
        <lane id=":10_27_0" index="0" allow="bus" speed="13.90" length="2.25" shape="712.91,909.30 712.22,909.62 710.74,909.47"/>
    </edge>
    <edge id=":10_18" function="internal">
        <lane id=":10_18_0" index="0" allow="bus" speed="13.90" length="12.88" shape="701.67,925.80 704.70,921.62 706.53,918.36 707.15,916.01 706.57,914.59"/>
    </edge>
    <edge id=":10_19" function="internal">
        <lane id=":10_19_0" index="0" allow="bus" speed="13.90" length="33.82" shape="701.67,925.80 707.83,918.03 713.43,912.12 719.98,907.58 729.00,903.95"/>
        <lane id=":10_19_1" index="1" speed="13.90" length="33.82" shape="704.27,927.84 710.17,920.24 715.22,914.71 721.21,910.56 729.97,907.10"/>
        <lane id=":10_19_2" index="2" speed="13.90" length="33.82" shape="706.87,929.88 712.52,922.46 717.01,917.31 722.45,913.54 730.95,910.26"/>
    </edge>
    <edge id=":10_22" function="internal">
        <lane id=":10_22_0" index="0" allow="bus" speed="13.90" length="30.62" shape="706.87,929.88 713.51,923.33 719.29,921.77 724.19,925.20 728.23,933.61"/>
    </edge>
    <edge id=":10_23" function="internal">
        <lane id=":10_23_0" index="0" allow="bus" speed="13.90" length="4.82" shape="706.87,929.88 708.28,929.41 709.18,929.60 709.58,930.43 709.46,931.91"/>
    </edge>
    <edge id=":1004_0" function="internal">
        <lane id=":1004_0_0" index="0" allow="bus" speed="13.90" length="4.66" shape="746.57,1173.96 745.35,1173.76 744.27,1173.93 743.32,1174.48 742.50,1175.40"/>
    </edge>
    <edge id=":1004_1" function="internal">
        <lane id=":1004_1_0" index="0" allow="bus" speed="13.90" length="19.96" shape="746.57,1173.96 740.36,1171.93 736.28,1169.84 732.98,1166.68 729.11,1161.43"/>
        <lane id=":1004_1_1" index="1" speed="13.90" length="19.96" shape="747.53,1170.81 741.95,1168.98 738.27,1167.11 735.30,1164.27 731.83,1159.56"/>
        <lane id=":1004_1_2" index="2" speed="13.90" length="19.96" shape="748.49,1167.65 743.53,1166.03 740.27,1164.37 737.63,1161.86 734.54,1157.68"/>
    </edge>
    <edge id=":1004_4" function="internal">
        <lane id=":1004_4_0" index="0" allow="bus" speed="13.90" length="2.41" shape="748.49,1167.65 747.54,1166.50 747.39,1165.59"/>
    </edge>
    <edge id=":1004_15" function="internal">
        <lane id=":1004_15_0" index="0" allow="bus" speed="13.90" length="2.41" shape="747.39,1165.59 748.02,1164.92 749.44,1164.49"/>
    </edge>
    <edge id=":1004_5" function="internal">
        <lane id=":1004_5_0" index="0" allow="bus" speed="13.90" length="13.23" shape="742.68,1152.04 744.60,1154.63 746.25,1156.17 748.29,1157.18 751.36,1158.18"/>
        <lane id=":1004_5_1" index="1" speed="13.90" length="13.23" shape="739.97,1153.92 742.28,1157.04 744.26,1158.90 746.70,1160.13 750.40,1161.33"/>
        <lane id=":1004_5_2" index="2" speed="13.90" length="13.23" shape="737.26,1155.80 739.95,1159.45 742.26,1161.64 745.12,1163.08 749.44,1164.49"/>
    </edge>
    <edge id=":1004_8" function="internal">
        <lane id=":1004_8_0" index="0" allow="bus" speed="13.90" length="6.88" shape="737.26,1155.80 740.17,1160.90 740.66,1162.54"/>
        <lane id=":1004_8_1" index="1" speed="13.90" length="6.88" shape="737.26,1155.80 739.25,1159.69 739.53,1161.46"/>
    </edge>
    <edge id=":1004_10" function="internal">
        <lane id=":1004_10_0" index="0" allow="bus" speed="13.90" length="2.41" shape="737.26,1155.80 737.28,1157.29 736.84,1158.10"/>
    </edge>
    <edge id=":1004_16" function="internal">
        <lane id=":1004_16_0" index="0" allow="bus" speed="13.90" length="11.48" shape="740.66,1162.54 741.56,1165.55 741.43,1169.77 739.77,1173.54"/>
    </edge>
    <edge id=":1004_17" function="internal">
        <lane id=":1004_17_0" index="0" allow="bus" speed="13.90" length="10.83" shape="739.53,1161.46 739.87,1163.63 739.14,1167.63 737.04,1171.69"/>
    </edge>
    <edge id=":1004_18" function="internal">
        <lane id=":1004_18_0" index="0" allow="bus" speed="13.90" length="2.41" shape="736.84,1158.10 735.92,1158.23 734.54,1157.68"/>
    </edge>
    <edge id=":1004_11" function="internal">
        <lane id=":1004_11_0" index="0" allow="bus" speed="13.90" length="5.02" shape="728.86,1166.12 729.52,1164.87 729.79,1163.67 729.65,1162.53 729.11,1161.43"/>
    </edge>
    <edge id=":1004_12" function="internal">
        <lane id=":1004_12_0" index="0" allow="bus" speed="13.90" length="19.43" shape="731.59,1167.98 735.37,1163.72 739.77,1161.19 744.78,1160.40 750.40,1161.33"/>
        <lane id=":1004_12_1" index="1" speed="13.90" length="19.43" shape="734.32,1169.83 737.36,1166.41 740.90,1164.38 744.93,1163.74 749.44,1164.49"/>
    </edge>
    <edge id=":1004_14" function="internal">
        <lane id=":1004_14_0" index="0" allow="bus" speed="13.90" length="4.82" shape="734.32,1169.83 735.69,1169.27 736.61,1169.40 737.06,1170.20 737.04,1171.69"/>
    </edge>
    <edge id=":1010_0" function="internal">
        <lane id=":1010_0_0" index="0" allow="bus" speed="13.90" length="4.82" shape="769.64,1429.30 768.38,1430.08 767.46,1430.11 766.88,1429.39 766.64,1427.93"/>
    </edge>
    <edge id=":1026_0" function="internal">
        <lane id=":1026_0_0" index="0" allow="bus" speed="13.90" length="4.82" shape="595.76,1057.98 594.85,1059.15 594.00,1059.50 593.20,1059.03 592.47,1057.74"/>
    </edge>
    <edge id=":1056_0" function="internal">
        <lane id=":1056_0_0" index="0" allow="bus" speed="13.90" length="4.82" shape="1463.56,414.85 1464.43,416.05 1464.54,416.97 1463.87,417.60 1462.42,417.95"/>
    </edge>
    <edge id=":1092_0" function="internal">
        <lane id=":1092_0_0" index="0" allow="bus" speed="13.90" length="4.82" shape="645.33,1306.52 643.95,1307.08 643.04,1306.96 642.59,1306.15 642.60,1304.66"/>
    </edge>
    <edge id=":115_0" function="internal">
        <lane id=":115_0_0" index="0" allow="bus" speed="13.90" length="5.82" shape="1052.88,568.62 1051.90,567.18 1050.86,566.65 1049.77,567.04 1048.61,568.35"/>
    </edge>
    <edge id=":115_1" function="internal">
        <lane id=":115_1_0" index="0" allow="bus" speed="13.90" length="27.70" shape="1052.88,568.62 1049.31,562.77 1045.09,558.21 1040.22,554.96 1034.71,553.02"/>
        <lane id=":115_1_1" index="1" speed="13.90" length="27.70" shape="1055.83,567.15 1051.86,560.65 1047.13,555.60 1041.65,551.98 1035.42,549.79"/>
        <lane id=":115_1_2" index="2" speed="13.90" length="27.70" shape="1058.78,565.68 1054.41,558.54 1049.17,552.98 1043.08,548.99 1036.14,546.57"/>
    </edge>
    <edge id=":115_4" function="internal">
        <lane id=":115_4_0" index="0" allow="bus" speed="13.90" length="2.41" shape="1058.78,565.68 1058.97,564.20 1059.52,563.46"/>
    </edge>
    <edge id=":115_14" function="internal">
        <lane id=":115_14_0" index="0" allow="bus" speed="13.90" length="2.41" shape="1059.52,563.46 1060.45,563.47 1061.74,564.20"/>
    </edge>
    <edge id=":115_5" function="internal">
        <lane id=":115_5_0" index="0" allow="bus" speed="13.90" length="37.99" shape="1038.28,536.91 1047.38,540.04 1055.30,545.14 1062.06,552.21 1067.64,561.26"/>
        <lane id=":115_5_1" index="1" speed="13.90" length="37.99" shape="1037.57,540.13 1045.95,543.02 1053.26,547.75 1059.51,554.32 1064.69,562.73"/>
    </edge>
    <edge id=":115_7" function="internal">
        <lane id=":115_7_0" index="0" allow="bus" speed="13.90" length="13.45" shape="1036.85,543.35 1045.41,546.57 1049.67,551.40"/>
        <lane id=":115_7_1" index="1" speed="13.90" length="13.45" shape="1036.85,543.35 1043.95,546.17 1046.17,549.10"/>
    </edge>
    <edge id=":115_9" function="internal">
        <lane id=":115_9_0" index="0" allow="bus" speed="13.90" length="2.66" shape="1036.85,543.35 1037.88,544.42 1038.11,545.32 1037.95,545.51"/>
    </edge>
    <edge id=":115_15" function="internal">
        <lane id=":115_15_0" index="0" allow="bus" speed="13.90" length="16.09" shape="1049.67,551.40 1049.77,551.51 1049.92,558.16 1045.87,566.52"/>
    </edge>
    <edge id=":115_16" function="internal">
        <lane id=":115_16_0" index="0" allow="bus" speed="13.90" length="16.94" shape="1046.17,549.10 1047.36,550.67 1047.08,556.84 1043.12,564.69"/>
    </edge>
    <edge id=":115_17" function="internal">
        <lane id=":115_17_0" index="0" allow="bus" speed="13.90" length="2.16" shape="1037.95,545.51 1037.53,546.03 1036.14,546.57"/>
    </edge>
    <edge id=":115_10" function="internal">
        <lane id=":115_10_0" index="0" allow="bus" speed="13.90" length="7.54" shape="1034.89,559.19 1036.22,556.80 1036.63,554.98 1036.13,553.71 1034.71,553.02"/>
    </edge>
    <edge id=":115_11" function="internal">
        <lane id=":115_11_0" index="0" allow="bus" speed="13.90" length="33.03" shape="1037.63,561.03 1044.95,552.71 1051.90,550.22 1058.48,553.56 1064.69,562.73"/>
        <lane id=":115_11_1" index="1" speed="13.90" length="33.03" shape="1040.38,562.86 1046.15,556.29 1051.64,554.32 1056.83,556.96 1061.74,564.20"/>
    </edge>
    <edge id=":115_13" function="internal">
        <lane id=":115_13_0" index="0" allow="bus" speed="13.90" length="4.82" shape="1040.38,562.86 1041.75,562.29 1042.67,562.40 1043.12,563.20 1043.12,564.69"/>
    </edge>
    <edge id=":118_0" function="internal">
        <lane id=":118_0_0" index="0" allow="bus" speed="13.90" length="31.65" shape="663.68,547.31 654.73,549.89 647.72,550.66 640.57,550.32 631.17,549.55"/>
        <lane id=":118_0_1" index="1" speed="13.90" length="31.65" shape="662.59,544.20 653.84,546.75 647.29,547.46 640.58,547.05 631.39,546.25"/>
        <lane id=":118_0_2" index="2" speed="13.90" length="31.65" shape="661.50,541.08 652.97,543.60 646.86,544.25 640.59,543.78 631.61,542.96"/>
    </edge>
    <edge id=":118_3" function="internal">
        <lane id=":118_3_0" index="0" allow="bus" speed="13.90" length="7.08" shape="661.50,541.08 654.94,542.01 653.65,541.62"/>
        <lane id=":118_3_1" index="1" speed="13.90" length="7.08" shape="661.50,541.08 656.31,541.49 655.43,541.10"/>
    </edge>
    <edge id=":118_5" function="internal">
        <lane id=":118_5_0" index="0" allow="bus" speed="13.90" length="2.55" shape="661.50,541.08 660.06,540.71 659.40,540.07 659.42,539.93"/>
    </edge>
    <edge id=":118_15" function="internal">
        <lane id=":118_15_0" index="0" allow="bus" speed="13.90" length="22.09" shape="653.65,541.62 648.73,540.11 642.85,535.37 637.31,527.79"/>
    </edge>
    <edge id=":118_16" function="internal">
        <lane id=":118_16_0" index="0" allow="bus" speed="13.90" length="21.88" shape="655.43,541.10 651.03,539.13 645.64,534.00 640.15,526.10"/>
    </edge>
    <edge id=":118_17" function="internal">
        <lane id=":118_17_0" index="0" allow="bus" speed="13.90" length="2.27" shape="659.42,539.93 659.52,539.15 660.41,537.97"/>
    </edge>
    <edge id=":118_6" function="internal">
        <lane id=":118_6_0" index="0" allow="bus" speed="13.90" length="14.81" shape="648.65,521.03 651.85,526.06 654.52,529.52 656.65,531.41 658.24,531.74"/>
    </edge>
    <edge id=":118_7" function="internal">
        <lane id=":118_7_0" index="0" allow="bus" speed="13.90" length="35.21" shape="645.81,522.72 650.62,533.76 649.82,541.36 643.41,545.53 631.39,546.25"/>
        <lane id=":118_7_1" index="1" speed="13.90" length="35.21" shape="642.98,524.41 646.77,533.11 646.14,539.10 641.08,542.39 631.61,542.96"/>
    </edge>
    <edge id=":118_9" function="internal">
        <lane id=":118_9_0" index="0" allow="bus" speed="13.90" length="4.82" shape="642.98,524.41 642.91,525.89 642.41,526.67 641.49,526.74 640.15,526.10"/>
    </edge>
    <edge id=":118_10" function="internal">
        <lane id=":118_10_0" index="0" allow="bus" speed="13.90" length="6.03" shape="632.27,533.08 634.11,532.97 635.09,532.33 635.21,531.17 634.48,529.48"/>
    </edge>
    <edge id=":118_11" function="internal">
        <lane id=":118_11_0" index="0" allow="bus" speed="13.90" length="27.68" shape="632.27,533.08 640.07,533.84 645.52,534.34 650.83,533.88 658.24,531.74"/>
        <lane id=":118_11_1" index="1" speed="13.90" length="27.68" shape="632.05,536.38 640.25,537.16 645.96,537.64 651.54,537.12 659.33,534.85"/>
        <lane id=":118_11_2" index="2" speed="13.90" length="27.68" shape="631.83,539.67 640.42,540.47 646.41,540.95 652.25,540.36 660.41,537.97"/>
    </edge>
    <edge id=":118_14" function="internal">
        <lane id=":118_14_0" index="0" allow="bus" speed="13.90" length="2.41" shape="631.83,539.67 633.01,540.57 633.36,541.42"/>
    </edge>
    <edge id=":118_18" function="internal">
        <lane id=":118_18_0" index="0" allow="bus" speed="13.90" length="2.41" shape="633.36,541.42 632.90,542.22 631.61,542.96"/>
    </edge>
    <edge id=":12_0" function="internal">
        <lane id=":12_0_0" index="0" allow="bus" speed="13.90" length="36.53" shape="962.05,708.68 955.63,701.16 949.20,695.96 941.82,691.98 932.60,688.12"/>
    </edge>
    <edge id=":12_1" function="internal">
        <lane id=":12_1_0" index="0" allow="bus" speed="13.90" length="43.08" shape="962.05,708.68 955.84,699.50 950.51,690.01 945.84,680.16 941.64,669.88"/>
        <lane id=":12_1_1" index="1" speed="13.90" length="43.08" shape="964.70,706.71 958.56,697.66 953.37,688.44 948.85,678.85 944.72,668.70"/>
        <lane id=":12_1_2" index="2" speed="13.90" length="43.08" shape="967.35,704.74 961.27,695.81 956.24,686.86 951.87,677.54 947.80,667.51"/>
    </edge>
    <edge id=":12_4" function="internal">
        <lane id=":12_4_0" index="0" allow="bus" speed="13.90" length="12.65" shape="967.35,704.74 962.26,695.56 961.86,693.45"/>
    </edge>
    <edge id=":12_5" function="internal">
        <lane id=":12_5_0" index="0" allow="bus" speed="13.90" length="9.25" shape="967.35,704.74 963.57,697.22 963.71,696.40"/>
    </edge>
    <edge id=":12_6" function="internal">
        <lane id=":12_6_0" index="0" allow="bus" speed="13.90" length="2.54" shape="967.35,704.74 967.27,703.26 967.69,702.43 967.81,702.41"/>
    </edge>
    <edge id=":12_33" function="internal">
        <lane id=":12_33_0" index="0" allow="bus" speed="13.90" length="27.96" shape="961.86,693.45 960.50,686.19 962.07,676.64 966.97,666.90"/>
    </edge>
    <edge id=":12_34" function="internal">
        <lane id=":12_34_0" index="0" allow="bus" speed="13.90" length="23.46" shape="963.71,696.40 964.60,691.30 970.45,686.98 981.12,684.26"/>
    </edge>
    <edge id=":12_35" function="internal">
        <lane id=":12_35_0" index="0" allow="bus" speed="13.90" length="2.28" shape="967.81,702.41 968.59,702.27 969.99,702.77"/>
    </edge>
    <edge id=":12_7" function="internal">
        <lane id=":12_7_0" index="0" allow="bus" speed="13.90" length="10.30" shape="982.55,694.05 978.44,694.89 975.86,695.96 974.81,697.28 975.29,698.84"/>
    </edge>
    <edge id=":12_8" function="internal">
        <lane id=":12_8_0" index="0" allow="bus" speed="13.90" length="49.16" shape="982.55,694.05 970.64,694.35 957.85,692.45 945.23,689.10 933.82,685.05"/>
        <lane id=":12_8_1" index="1" speed="13.90" length="49.16" shape="982.07,690.79 970.42,691.11 958.22,689.28 946.18,686.01 935.04,681.99"/>
    </edge>
    <edge id=":12_10" function="internal">
        <lane id=":12_10_0" index="0" allow="bus" speed="13.90" length="45.18" shape="982.07,690.79 969.49,690.91 959.07,687.27 950.81,679.87 944.72,668.70"/>
        <lane id=":12_10_1" index="1" speed="13.90" length="45.18" shape="981.60,687.52 970.22,687.63 960.79,684.33 953.32,677.63 947.80,667.51"/>
    </edge>
    <edge id=":12_12" function="internal">
        <lane id=":12_12_0" index="0" allow="bus" speed="13.90" length="34.56" shape="981.60,687.52 970.70,687.84 965.08,684.81 964.75,678.44 969.71,668.73"/>
    </edge>
    <edge id=":12_13" function="internal">
        <lane id=":12_13_0" index="0" allow="bus" speed="13.90" length="4.82" shape="981.60,687.52 980.25,686.89 979.72,686.13 980.01,685.25 981.12,684.26"/>
    </edge>
    <edge id=":12_14" function="internal">
        <lane id=":12_14_0" index="0" allow="bus" speed="13.90" length="6.44" shape="977.94,674.23 977.02,676.04 977.08,677.22 978.13,677.79 980.16,677.73"/>
    </edge>
    <edge id=":12_15" function="internal">
        <lane id=":12_15_0" index="0" allow="bus" speed="13.90" length="30.72" shape="977.94,674.23 973.17,682.55 970.69,689.75 970.52,695.84 972.64,700.80"/>
        <lane id=":12_15_1" index="1" speed="13.90" length="30.72" shape="975.20,672.40 969.95,681.68 967.33,689.84 967.34,696.87 969.99,702.77"/>
    </edge>
    <edge id=":12_17" function="internal">
        <lane id=":12_17_0" index="0" allow="bus" speed="13.90" length="45.11" shape="975.20,672.40 966.85,681.81 957.18,687.06 946.16,688.14 933.82,685.05"/>
        <lane id=":12_17_1" index="1" speed="13.90" length="45.11" shape="972.45,670.56 964.91,679.07 956.16,683.81 946.20,684.78 935.04,681.99"/>
    </edge>
    <edge id=":12_19" function="internal">
        <lane id=":12_19_0" index="0" allow="bus" speed="13.90" length="35.66" shape="972.45,670.56 965.33,678.75 958.84,680.96 953.00,677.22 947.80,667.51"/>
    </edge>
    <edge id=":12_20" function="internal">
        <lane id=":12_20_0" index="0" allow="bus" speed="13.90" length="4.82" shape="972.45,670.56 971.08,671.13 970.17,671.02 969.71,670.22 969.71,668.73"/>
    </edge>
    <edge id=":12_21" function="internal">
        <lane id=":12_21_0" index="0" allow="bus" speed="13.90" length="10.42" shape="957.04,663.96 958.57,666.85 960.28,668.00 962.16,667.41 964.22,665.07"/>
    </edge>
    <edge id=":12_22" function="internal">
        <lane id=":12_22_0" index="0" allow="bus" speed="13.90" length="31.73" shape="957.04,663.96 961.31,672.30 966.67,677.92 973.11,680.82 980.64,680.99"/>
    </edge>
    <edge id=":12_23" function="internal">
        <lane id=":12_23_0" index="0" allow="bus" speed="13.90" length="40.40" shape="957.04,663.96 960.90,673.63 964.83,682.13 969.42,690.28 975.29,698.84"/>
        <lane id=":12_23_1" index="1" speed="13.90" length="40.40" shape="953.96,665.15 957.89,674.93 961.97,683.71 966.71,692.12 972.64,700.80"/>
        <lane id=":12_23_2" index="2" speed="13.90" length="40.40" shape="950.88,666.33 954.88,676.24 959.10,685.29 963.99,693.97 969.99,702.77"/>
    </edge>
    <edge id=":12_26" function="internal">
        <lane id=":12_26_0" index="0" allow="bus" speed="13.90" length="11.37" shape="950.88,666.33 953.62,677.03 953.54,677.34"/>
    </edge>
    <edge id=":12_27" function="internal">
        <lane id=":12_27_0" index="0" allow="bus" speed="13.90" length="2.41" shape="950.88,666.33 950.55,667.78 949.93,668.46"/>
    </edge>
    <edge id=":12_36" function="internal">
        <lane id=":12_36_0" index="0" allow="bus" speed="13.90" length="23.54" shape="953.54,677.34 951.90,683.20 945.70,684.86 935.04,681.99"/>
    </edge>
    <edge id=":12_37" function="internal">
        <lane id=":12_37_0" index="0" allow="bus" speed="13.90" length="2.41" shape="949.93,668.46 949.01,668.37 947.80,667.51"/>
    </edge>
    <edge id=":12_28" function="internal">
        <lane id=":12_28_0" index="0" allow="bus" speed="13.90" length="6.48" shape="938.70,672.79 940.68,673.32 941.83,673.01 942.15,671.87 941.64,669.88"/>
    </edge>
    <edge id=":12_29" function="internal">
        <lane id=":12_29_0" index="0" allow="bus" speed="13.90" length="33.75" shape="937.48,675.85 946.29,678.07 954.14,677.31 961.03,673.59 966.97,666.90"/>
    </edge>
    <edge id=":12_30" function="internal">
        <lane id=":12_30_0" index="0" allow="bus" speed="13.90" length="43.95" shape="937.48,675.85 948.01,679.30 958.72,681.32 969.59,681.89 980.64,680.99"/>
    </edge>
    <edge id=":12_31" function="internal">
        <lane id=":12_31_0" index="0" allow="bus" speed="13.90" length="41.88" shape="936.26,678.92 946.15,683.29 955.00,688.41 962.91,694.75 969.99,702.77"/>
    </edge>
    <edge id=":12_32" function="internal">