<routes>
        <vType id="bus" vClass="bus" accel="0.5" decel="4.5" sigma="0.5" length="5" minGap="2.5" maxSpeed="25.00" guiShape="bus"/>
        <vType id="car" vClass="private" accel="0.8" decel="4.5" sigma="0.5" length="5" minGap="2.5" maxSpeed="30.00" lcKeepRight="0" guiShape="passenger/hatchback"/>
        <vType id="priority" vClass="ignoring" accel="0.8" decel="4.5" sigma="0.5" length="5" minGap="2.5" maxSpeed="30.00" lcKeepRight="0" guiShape="passenger/hatchback"/>

        <route id="WE" edges="anti-clock-1 anti-clock-2" />
        <route id="EW" edges="clock-wise-2 clock-wise-1" />


        <vehicle id="car3" type="car" route="EW" depart="1" departLane="1"> 
                <param key="has.reroute.device" value="true"/> 
        </vehicle>
         <vehicle id="car4" type="car" route="EW" depart="2" departLane="1"> 
                <param key="has.reroute.device" value="true"/> 
        </vehicle>
         <vehicle id="car5" type="car" route="EW" depart="2" departLane="0"> 
                <param key="has.reroute.device" value="true"/> 
        </vehicle>
         <vehicle id="car6" type="car" route="EW" depart="3" departLane="0"> 
                <param key="has.reroute.device" value="true"/> 
        </vehicle>
         <vehicle id="car7" type="car" route="EW" depart="3" departLane="1"> 
                <param key="has.reroute.device" value="true"/> 
        </vehicle>
         <vehicle id="car8" type="car" route="EW" depart="4" departLane="0"> 
                <param key="has.reroute.device" value="true"/> 
        </vehicle>
         <vehicle id="car9" type="car" route="EW" depart="4" departLane="1"> 
                <param key="has.reroute.device" value="true"/> 
        </vehicle>
         <vehicle id="car10" type="car" route="EW" depart="5" departLane="1"> 
                <param key="has.reroute.device" value="true"/> 
        </vehicle>
</routes>
