<routes>
        <vType id="bus" vClass="bus" accel="0.5" decel="4.5" sigma="0.5" length="5" minGap="2.5" maxSpeed="25.00" guiShape="bus"/>
        <vType id="car" vClass="private" accel="0.8" decel="4.5" sigma="0.5" length="5" minGap="2.5" maxSpeed="30.00"  guiShape="passenger/hatchback"/>
        <vType id="priority" vClass="ignoring" accel="0.8" decel="4.5" sigma="0.5" length="5" minGap="2.5" maxSpeed="30.00"  guiShape="passenger/hatchback"/>

        <route id="WE" edges="anti-clock-1 anti-clock-2" />
        <route id="EW" edges="clock-wise-2 clock-wise-1" />
    <vehicle id="EW_0" type="car" route="EW" depart="0" departLane="1" />
    <vehicle id="WE_1" type="car" route="WE" depart="2" departLane="1" />
    <vehicle id="EW_2" type="car" route="EW" depart="2" departLane="1" />
    <vehicle id="EW_3" type="bus" route="EW" depart="2" departLane="0" />
    <vehicle id="WE_4" type="car" route="WE" depart="5" departLane="2" />
    <vehicle id="WE_5" type="car" route="WE" depart="7" departLane="1" />
    <vehicle id="WE_6" type="car" route="WE" depart="12" departLane="1" />
    <vehicle id="WE_7" type="bus" route="WE" depart="12" departLane="0" />
    <vehicle id="EW_8" type="car" route="EW" depart="20" departLane="1" />
    <vehicle id="EW_9" type="bus" route="EW" depart="26" departLane="0" />
    <vehicle id="WE_10" type="car" route="WE" depart="27" departLane="1" />
    <vehicle id="WE_11" type="bus" route="WE" depart="28" departLane="0" />
    <vehicle id="WE_12" type="bus" route="WE" depart="30" departLane="0" />
    <vehicle id="WE_13" type="bus" route="WE" depart="38" departLane="0" />
    <vehicle id="WE_14" type="car" route="WE" depart="39" departLane="2" />
    <vehicle id="WE_15" type="bus" route="WE" depart="40" departLane="0" />
    <vehicle id="EW_16" type="car" route="EW" depart="41" departLane="1" />
    <vehicle id="WE_17" type="car" route="WE" depart="42" departLane="2" />
    <vehicle id="EW_18" type="car" route="EW" depart="49" departLane="2" />
    <vehicle id="EW_19" type="bus" route="EW" depart="50" departLane="0" />
    <vehicle id="WE_20" type="bus" route="WE" depart="54" departLane="0" />
    <vehicle id="EW_21" type="bus" route="EW" depart="56" departLane="0" />
    <vehicle id="EW_22" type="car" route="EW" depart="61" departLane="2" />
    <vehicle id="WE_23" type="bus" route="WE" depart="64" departLane="0" />
    <vehicle id="EW_24" type="car" route="EW" depart="70" departLane="2" />
    <vehicle id="WE_25" type="car" route="WE" depart="72" departLane="1" />
    <vehicle id="EW_26" type="bus" route="EW" depart="78" departLane="0" />
    <vehicle id="EW_27" type="car" route="EW" depart="80" departLane="1" />
    <vehicle id="EW_28" type="car" route="EW" depart="84" departLane="2" />
    <vehicle id="WE_29" type="car" route="WE" depart="90" departLane="1" />
    <vehicle id="WE_30" type="bus" route="WE" depart="90" departLane="0" />
    <vehicle id="EW_31" type="bus" route="EW" depart="92" departLane="0" />
    <vehicle id="WE_32" type="car" route="WE" depart="93" departLane="2" />
    <vehicle id="EW_33" type="car" route="EW" depart="101" departLane="2" />
    <vehicle id="WE_34" type="car" route="WE" depart="107" departLane="1" />
    <vehicle id="EW_35" type="car" route="EW" depart="115" departLane="2" />
    <vehicle id="EW_36" type="car" route="EW" depart="117" departLane="2" />
    <vehicle id="EW_37" type="car" route="EW" depart="123" departLane="1" />
    <vehicle id="WE_38" type="car" route="WE" depart="127" departLane="2" />
    <vehicle id="WE_39" type="car" route="WE" depart="130" departLane="1" />
    <vehicle id="EW_40" type="bus" route="EW" depart="130" departLane="0" />
    <vehicle id="EW_41" type="car" route="EW" depart="133" departLane="2" />
    <vehicle id="WE_42" type="car" route="WE" depart="136" departLane="1" />
    <vehicle id="WE_43" type="car" route="WE" depart="144" departLane="1" />
    <vehicle id="WE_44" type="bus" route="WE" depart="146" departLane="0" />
    <vehicle id="WE_45" type="bus" route="WE" depart="150" departLane="0" />
    <vehicle id="WE_46" type="bus" route="WE" depart="154" departLane="0" />
    <vehicle id="WE_47" type="car" route="WE" depart="157" departLane="1" />
    <vehicle id="WE_48" type="car" route="WE" depart="158" departLane="2" />
    <vehicle id="EW_49" type="bus" route="EW" depart="158" departLane="0" />
    <vehicle id="WE_50" type="car" route="WE" depart="162" departLane="1" />
    <vehicle id="WE_51" type="car" route="WE" depart="165" departLane="1" />
    <vehicle id="WE_52" type="car" route="WE" depart="170" departLane="1" />
    <vehicle id="EW_53" type="car" route="EW" depart="171" departLane="2" />
    <vehicle id="WE_54" type="bus" route="WE" depart="182" departLane="0" />
    <vehicle id="WE_55" type="bus" route="WE" depart="184" departLane="0" />
    <vehicle id="EW_56" type="car" route="EW" depart="187" departLane="2" />
    <vehicle id="WE_57" type="car" route="WE" depart="188" departLane="2" />
    <vehicle id="EW_58" type="car" route="EW" depart="190" departLane="1" />
    <vehicle id="EW_59" type="car" route="EW" depart="199" departLane="2" />
    <vehicle id="WE_60" type="car" route="WE" depart="204" departLane="2" />
    <vehicle id="WE_61" type="car" route="WE" depart="205" departLane="2" />
    <vehicle id="EW_62" type="car" route="EW" depart="205" departLane="1" />
    <vehicle id="EW_63" type="car" route="EW" depart="213" departLane="1" />
    <vehicle id="WE_64" type="car" route="WE" depart="220" departLane="1" />
    <vehicle id="EW_65" type="car" route="EW" depart="223" departLane="1" />
    <vehicle id="EW_66" type="bus" route="EW" depart="224" departLane="0" />
    <vehicle id="EW_67" type="car" route="EW" depart="227" departLane="2" />
    <vehicle id="EW_68" type="car" route="EW" depart="230" departLane="1" />
    <vehicle id="WE_69" type="bus" route="WE" depart="242" departLane="0" />
    <vehicle id="WE_70" type="bus" route="WE" depart="256" departLane="0" />
    <vehicle id="EW_71" type="car" route="EW" depart="259" departLane="2" />
    <vehicle id="EW_72" type="car" route="EW" depart="267" departLane="1" />
    <vehicle id="EW_73" type="car" route="EW" depart="269" departLane="2" />
    <vehicle id="WE_74" type="car" route="WE" depart="271" departLane="2" />
    <vehicle id="WE_75" type="car" route="WE" depart="274" departLane="2" />
    <vehicle id="WE_76" type="bus" route="WE" depart="276" departLane="0" />
    <vehicle id="WE_77" type="car" route="WE" depart="285" departLane="2" />
    <vehicle id="WE_78" type="car" route="WE" depart="292" departLane="1" />
    <vehicle id="WE_79" type="bus" route="WE" depart="300" departLane="0" />
    <vehicle id="WE_80" type="car" route="WE" depart="304" departLane="2" />
    <vehicle id="WE_81" type="car" route="WE" depart="305" departLane="2" />
    <vehicle id="WE_82" type="car" route="WE" depart="308" departLane="2" />
    <vehicle id="WE_83" type="car" route="WE" depart="311" departLane="1" />
    <vehicle id="EW_84" type="car" route="EW" depart="312" departLane="1" />
    <vehicle id="EW_85" type="car" route="EW" depart="313" departLane="2" />
    <vehicle id="EW_86" type="car" route="EW" depart="317" departLane="2" />
    <vehicle id="EW_87" type="bus" route="EW" depart="318" departLane="0" />
    <vehicle id="EW_88" type="car" route="EW" depart="321" departLane="2" />
    <vehicle id="EW_89" type="car" route="EW" depart="323" departLane="1" />
    <vehicle id="WE_90" type="car" route="WE" depart="325" departLane="2" />
    <vehicle id="EW_91" type="car" route="EW" depart="328" departLane="2" />
    <vehicle id="WE_92" type="car" route="WE" depart="330" departLane="1" />
    <vehicle id="EW_93" type="car" route="EW" depart="331" departLane="1" />
    <vehicle id="EW_94" type="car" route="EW" depart="332" departLane="1" />
    <vehicle id="EW_95" type="bus" route="EW" depart="334" departLane="0" />
    <vehicle id="EW_96" type="bus" route="EW" depart="338" departLane="0" />
    <vehicle id="EW_97" type="bus" route="EW" depart="340" departLane="0" />
    <vehicle id="EW_98" type="car" route="EW" depart="341" departLane="1" />
    <vehicle id="WE_99" type="car" route="WE" depart="352" departLane="2" />
    <vehicle id="EW_100" type="car" route="EW" depart="354" departLane="2" />
    <vehicle id="WE_101" type="car" route="WE" depart="356" departLane="2" />
    <vehicle id="WE_102" type="bus" route="WE" depart="358" departLane="0" />
    <vehicle id="EW_103" type="bus" route="EW" depart="358" departLane="0" />
    <vehicle id="EW_104" type="car" route="EW" depart="364" departLane="1" />
    <vehicle id="EW_105" type="bus" route="EW" depart="364" departLane="0" />
    <vehicle id="EW_106" type="bus" route="EW" depart="366" departLane="0" />
    <vehicle id="EW_107" type="car" route="EW" depart="369" departLane="2" />
    <vehicle id="WE_108" type="car" route="WE" depart="370" departLane="1" />
    <vehicle id="WE_109" type="bus" route="WE" depart="372" departLane="0" />
    <vehicle id="WE_110" type="bus" route="WE" depart="374" departLane="0" />
    <vehicle id="EW_111" type="bus" route="EW" depart="386" departLane="0" />
    <vehicle id="EW_112" type="car" route="EW" depart="388" departLane="2" />
    <vehicle id="WE_113" type="car" route="WE" depart="389" departLane="2" />
    <vehicle id="EW_114" type="car" route="EW" depart="389" departLane="2" />
    <vehicle id="EW_115" type="car" route="EW" depart="394" departLane="1" />
    <vehicle id="EW_116" type="car" route="EW" depart="400" departLane="1" />
    <vehicle id="WE_117" type="car" route="WE" depart="412" departLane="2" />
    <vehicle id="EW_118" type="car" route="EW" depart="413" departLane="1" />
    <vehicle id="EW_119" type="car" route="EW" depart="430" departLane="1" />
    <vehicle id="WE_120" type="car" route="WE" depart="432" departLane="2" />
    <vehicle id="EW_121" type="car" route="EW" depart="435" departLane="1" />
    <vehicle id="WE_122" type="bus" route="WE" depart="438" departLane="0" />
    <vehicle id="EW_123" type="bus" route="EW" depart="440" departLane="0" />
    <vehicle id="WE_124" type="car" route="WE" depart="444" departLane="2" />
    <vehicle id="EW_125" type="car" route="EW" depart="444" departLane="2" />
    <vehicle id="WE_126" type="car" route="WE" depart="447" departLane="2" />
    <vehicle id="EW_127" type="car" route="EW" depart="449" departLane="2" />
    <vehicle id="EW_128" type="car" route="EW" depart="452" departLane="2" />
    <vehicle id="WE_129" type="car" route="WE" depart="453" departLane="1" />
    <vehicle id="EW_130" type="car" route="EW" depart="453" departLane="2" />
    <vehicle id="EW_131" type="car" route="EW" depart="461" departLane="2" />
    <vehicle id="EW_132" type="bus" route="EW" depart="462" departLane="0" />
    <vehicle id="WE_133" type="car" route="WE" depart="465" departLane="2" />
    <vehicle id="WE_134" type="car" route="WE" depart="467" departLane="2" />
    <vehicle id="WE_135" type="car" route="WE" depart="470" departLane="1" />
    <vehicle id="WE_136" type="bus" route="WE" depart="480" departLane="0" />
    <vehicle id="EW_137" type="car" route="EW" depart="482" departLane="2" />
    <vehicle id="EW_138" type="car" route="EW" depart="486" departLane="2" />
    <vehicle id="WE_139" type="car" route="WE" depart="488" departLane="1" />
    <vehicle id="WE_140" type="car" route="WE" depart="490" departLane="2" />
    <vehicle id="WE_141" type="car" route="WE" depart="494" departLane="1" />
    <vehicle id="EW_142" type="car" route="EW" depart="502" departLane="1" />
    <vehicle id="WE_143" type="car" route="WE" depart="507" departLane="1" />
    <vehicle id="EW_144" type="bus" route="EW" depart="512" departLane="0" />
    <vehicle id="WE_145" type="car" route="WE" depart="518" departLane="2" />
    <vehicle id="EW_146" type="car" route="EW" depart="519" departLane="1" />
    <vehicle id="WE_147" type="bus" route="WE" depart="524" departLane="0" />
    <vehicle id="WE_148" type="car" route="WE" depart="530" departLane="1" />
    <vehicle id="EW_149" type="car" route="EW" depart="538" departLane="1" />
    <vehicle id="WE_150" type="bus" route="WE" depart="542" departLane="0" />
    <vehicle id="EW_151" type="car" route="EW" depart="543" departLane="1" />
    <vehicle id="EW_152" type="car" route="EW" depart="546" departLane="1" />
    <vehicle id="EW_153" type="car" route="EW" depart="564" departLane="1" />
    <vehicle id="EW_154" type="car" route="EW" depart="565" departLane="2" />
    <vehicle id="WE_155" type="car" route="WE" depart="569" departLane="2" />
    <vehicle id="WE_156" type="bus" route="WE" depart="574" departLane="0" />
    <vehicle id="WE_157" type="car" route="WE" depart="583" departLane="2" />
    <vehicle id="EW_158" type="bus" route="EW" depart="586" departLane="0" />
    <vehicle id="WE_159" type="car" route="WE" depart="588" departLane="1" />
    <vehicle id="EW_160" type="car" route="EW" depart="596" departLane="1" />
    <vehicle id="EW_161" type="bus" route="EW" depart="596" departLane="0" />
    <vehicle id="EW_162" type="car" route="EW" depart="597" departLane="2" />
    <vehicle id="WE_163" type="bus" route="WE" depart="600" departLane="0" />
    <vehicle id="WE_164" type="bus" route="WE" depart="602" departLane="0" />
    <vehicle id="WE_165" type="car" route="WE" depart="605" departLane="1" />
    <vehicle id="EW_166" type="car" route="EW" depart="605" departLane="2" />
    <vehicle id="EW_167" type="car" route="EW" depart="606" departLane="2" />
    <vehicle id="WE_168" type="bus" route="WE" depart="606" departLane="0" />
    <vehicle id="WE_169" type="car" route="WE" depart="614" departLane="1" />
    <vehicle id="WE_170" type="car" route="WE" depart="619" departLane="1" />
    <vehicle id="WE_171" type="car" route="WE" depart="620" departLane="2" />
    <vehicle id="WE_172" type="bus" route="WE" depart="620" departLane="0" />
    <vehicle id="WE_173" type="bus" route="WE" depart="622" departLane="0" />
    <vehicle id="WE_174" type="car" route="WE" depart="627" departLane="2" />
    <vehicle id="WE_175" type="car" route="WE" depart="637" departLane="2" />
    <vehicle id="WE_176" type="car" route="WE" depart="642" departLane="2" />
    <vehicle id="EW_177" type="car" route="EW" depart="647" departLane="2" />
    <vehicle id="WE_178" type="bus" route="WE" depart="658" departLane="0" />
    <vehicle id="EW_179" type="bus" route="EW" depart="658" departLane="0" />
    <vehicle id="WE_180" type="car" route="WE" depart="662" departLane="2" />
    <vehicle id="EW_181" type="car" route="EW" depart="664" departLane="2" />
    <vehicle id="WE_182" type="bus" route="WE" depart="664" departLane="0" />
    <vehicle id="WE_183" type="car" route="WE" depart="666" departLane="2" />
    <vehicle id="EW_184" type="car" route="EW" depart="667" departLane="1" />
    <vehicle id="EW_185" type="bus" route="EW" depart="672" departLane="0" />
    <vehicle id="WE_186" type="car" route="WE" depart="674" departLane="1" />
    <vehicle id="EW_187" type="car" route="EW" depart="676" departLane="2" />
    <vehicle id="WE_188" type="bus" route="WE" depart="676" departLane="0" />
    <vehicle id="EW_189" type="car" route="EW" depart="678" departLane="1" />
    <vehicle id="EW_190" type="car" route="EW" depart="679" departLane="2" />
    <vehicle id="WE_191" type="car" route="WE" depart="682" departLane="1" />
    <vehicle id="WE_192" type="car" route="WE" depart="686" departLane="1" />
    <vehicle id="EW_193" type="car" route="EW" depart="688" departLane="1" />
    <vehicle id="EW_194" type="bus" route="EW" depart="690" departLane="0" />
    <vehicle id="EW_195" type="car" route="EW" depart="692" departLane="1" />
    <vehicle id="EW_196" type="car" route="EW" depart="694" departLane="1" />
    <vehicle id="EW_197" type="bus" route="EW" depart="696" departLane="0" />
    <vehicle id="EW_198" type="car" route="EW" depart="697" departLane="2" />
    <vehicle id="WE_199" type="car" route="WE" depart="699" departLane="2" />
    <vehicle id="EW_200" type="car" route="EW" depart="702" departLane="1" />
    <vehicle id="WE_201" type="car" route="WE" depart="703" departLane="1" />
    <vehicle id="WE_202" type="bus" route="WE" depart="720" departLane="0" />
    <vehicle id="EW_203" type="bus" route="EW" depart="724" departLane="0" />
    <vehicle id="WE_204" type="bus" route="WE" depart="726" departLane="0" />
    <vehicle id="EW_205" type="bus" route="EW" depart="728" departLane="0" />
    <vehicle id="EW_206" type="bus" route="EW" depart="732" departLane="0" />
    <vehicle id="WE_207" type="car" route="WE" depart="744" departLane="2" />
    <vehicle id="WE_208" type="bus" route="WE" depart="746" departLane="0" />
    <vehicle id="WE_209" type="car" route="WE" depart="753" departLane="1" />
    <vehicle id="EW_210" type="car" route="EW" depart="759" departLane="1" />
    <vehicle id="WE_211" type="car" route="WE" depart="760" departLane="1" />
    <vehicle id="EW_212" type="bus" route="EW" depart="762" departLane="0" />
    <vehicle id="WE_213" type="car" route="WE" depart="763" departLane="2" />
    <vehicle id="EW_214" type="car" route="EW" depart="768" departLane="2" />
    <vehicle id="EW_215" type="car" route="EW" depart="776" departLane="1" />
    <vehicle id="EW_216" type="car" route="EW" depart="779" departLane="2" />
    <vehicle id="WE_217" type="car" route="WE" depart="786" departLane="2" />
    <vehicle id="WE_218" type="car" route="WE" depart="788" departLane="2" />
    <vehicle id="WE_219" type="car" route="WE" depart="790" departLane="2" />
    <vehicle id="WE_220" type="car" route="WE" depart="794" departLane="1" />
    <vehicle id="WE_221" type="car" route="WE" depart="796" departLane="2" />
    <vehicle id="EW_222" type="car" route="EW" depart="802" departLane="1" />
    <vehicle id="EW_223" type="car" route="EW" depart="803" departLane="2" />
    <vehicle id="WE_224" type="car" route="WE" depart="805" departLane="1" />
    <vehicle id="WE_225" type="car" route="WE" depart="809" departLane="2" />
    <vehicle id="WE_226" type="car" route="WE" depart="812" departLane="1" />
    <vehicle id="WE_227" type="bus" route="WE" depart="814" departLane="0" />
    <vehicle id="EW_228" type="bus" route="EW" depart="818" departLane="0" />
    <vehicle id="WE_229" type="car" route="WE" depart="825" departLane="1" />
    <vehicle id="WE_230" type="car" route="WE" depart="826" departLane="1" />
    <vehicle id="EW_231" type="car" route="EW" depart="828" departLane="2" />
    <vehicle id="EW_232" type="car" route="EW" depart="832" departLane="2" />
    <vehicle id="WE_233" type="car" route="WE" depart="833" departLane="1" />
    <vehicle id="EW_234" type="car" route="EW" depart="840" departLane="2" />
    <vehicle id="EW_235" type="bus" route="EW" depart="840" departLane="0" />
    <vehicle id="WE_236" type="car" route="WE" depart="842" departLane="1" />
    <vehicle id="EW_237" type="car" route="EW" depart="845" departLane="2" />
    <vehicle id="WE_238" type="bus" route="WE" depart="850" departLane="0" />
    <vehicle id="WE_239" type="car" route="WE" depart="853" departLane="1" />
    <vehicle id="EW_240" type="bus" route="EW" depart="854" departLane="0" />
    <vehicle id="WE_241" type="car" route="WE" depart="859" departLane="1" />
    <vehicle id="WE_242" type="car" route="WE" depart="861" departLane="2" />
    <vehicle id="EW_243" type="car" route="EW" depart="863" departLane="2" />
    <vehicle id="EW_244" type="car" route="EW" depart="864" departLane="2" />
    <vehicle id="EW_245" type="car" route="EW" depart="866" departLane="1" />
    <vehicle id="WE_246" type="car" route="WE" depart="867" departLane="2" />
    <vehicle id="EW_247" type="bus" route="EW" depart="870" departLane="0" />
    <vehicle id="EW_248" type="bus" route="EW" depart="876" departLane="0" />
    <vehicle id="WE_249" type="car" route="WE" depart="878" departLane="1" />
    <vehicle id="WE_250" type="car" route="WE" depart="880" departLane="1" />
    <vehicle id="EW_251" type="car" route="EW" depart="882" departLane="2" />
    <vehicle id="EW_252" type="car" route="EW" depart="885" departLane="1" />
    <vehicle id="WE_253" type="car" route="WE" depart="888" departLane="1" />
    <vehicle id="EW_254" type="car" route="EW" depart="889" departLane="2" />
    <vehicle id="EW_255" type="car" route="EW" depart="891" departLane="2" />
    <vehicle id="WE_256" type="car" route="WE" depart="893" departLane="1" />
    <vehicle id="EW_257" type="car" route="EW" depart="900" departLane="2" />
    <vehicle id="EW_258" type="car" route="EW" depart="903" departLane="2" />
    <vehicle id="EW_259" type="car" route="EW" depart="907" departLane="2" />
    <vehicle id="EW_260" type="bus" route="EW" depart="910" departLane="0" />
    <vehicle id="EW_261" type="car" route="EW" depart="912" departLane="2" />
    <vehicle id="WE_262" type="bus" route="WE" depart="914" departLane="0" />
    <vehicle id="EW_263" type="car" route="EW" depart="926" departLane="2" />
    <vehicle id="EW_264" type="car" route="EW" depart="930" departLane="2" />
    <vehicle id="EW_265" type="car" route="EW" depart="932" departLane="1" />
    <vehicle id="EW_266" type="bus" route="EW" depart="932" departLane="0" />
    <vehicle id="EW_267" type="car" route="EW" depart="937" departLane="2" />
    <vehicle id="EW_268" type="bus" route="EW" depart="938" departLane="0" />
    <vehicle id="EW_269" type="bus" route="EW" depart="940" departLane="0" />
    <vehicle id="EW_270" type="car" route="EW" depart="942" departLane="2" />
    <vehicle id="WE_271" type="bus" route="WE" depart="946" departLane="0" />
    <vehicle id="WE_272" type="car" route="WE" depart="950" departLane="1" />
    <vehicle id="WE_273" type="bus" route="WE" depart="950" departLane="0" />
    <vehicle id="WE_274" type="bus" route="WE" depart="952" departLane="0" />
    <vehicle id="WE_275" type="car" route="WE" depart="956" departLane="2" />
    <vehicle id="WE_276" type="bus" route="WE" depart="956" departLane="0" />
    <vehicle id="WE_277" type="car" route="WE" depart="961" departLane="2" />
    <vehicle id="EW_278" type="bus" route="EW" depart="968" departLane="0" />
    <vehicle id="EW_279" type="car" route="EW" depart="977" departLane="1" />
    <vehicle id="EW_280" type="bus" route="EW" depart="978" departLane="0" />
    <vehicle id="WE_281" type="car" route="WE" depart="981" departLane="2" />
    <vehicle id="EW_282" type="bus" route="EW" depart="982" departLane="0" />
    <vehicle id="WE_283" type="bus" route="WE" depart="990" departLane="0" />
    <vehicle id="EW_284" type="bus" route="EW" depart="994" departLane="0" />
    <vehicle id="WE_285" type="car" route="WE" depart="1002" departLane="2" />
    <vehicle id="WE_286" type="bus" route="WE" depart="1002" departLane="0" />
    <vehicle id="WE_287" type="car" route="WE" depart="1004" departLane="1" />
    <vehicle id="WE_288" type="car" route="WE" depart="1011" departLane="2" />
    <vehicle id="EW_289" type="car" route="EW" depart="1018" departLane="2" />
    <vehicle id="EW_290" type="bus" route="EW" depart="1022" departLane="0" />
    <vehicle id="EW_291" type="car" route="EW" depart="1025" departLane="1" />
    <vehicle id="EW_292" type="car" route="EW" depart="1029" departLane="2" />
    <vehicle id="WE_293" type="car" route="WE" depart="1031" departLane="2" />
    <vehicle id="WE_294" type="car" route="WE" depart="1036" departLane="1" />
    <vehicle id="WE_295" type="car" route="WE" depart="1038" departLane="2" />
    <vehicle id="EW_296" type="car" route="EW" depart="1039" departLane="1" />
    <vehicle id="EW_297" type="car" route="EW" depart="1040" departLane="1" />
    <vehicle id="WE_298" type="car" route="WE" depart="1052" departLane="2" />
    <vehicle id="EW_299" type="bus" route="EW" depart="1052" departLane="0" />
    <vehicle id="EW_300" type="car" route="EW" depart="1054" departLane="2" />
    <vehicle id="WE_301" type="car" route="WE" depart="1063" departLane="1" />
    <vehicle id="WE_302" type="bus" route="WE" depart="1064" departLane="0" />
    <vehicle id="WE_303" type="bus" route="WE" depart="1066" departLane="0" />
    <vehicle id="EW_304" type="car" route="EW" depart="1069" departLane="1" />
    <vehicle id="WE_305" type="car" route="WE" depart="1070" departLane="1" />
    <vehicle id="WE_306" type="car" route="WE" depart="1071" departLane="2" />
    <vehicle id="EW_307" type="car" route="EW" depart="1071" departLane="2" />
    <vehicle id="WE_308" type="car" route="WE" depart="1074" departLane="2" />
    <vehicle id="WE_309" type="car" route="WE" depart="1078" departLane="2" />
    <vehicle id="EW_310" type="bus" route="EW" depart="1080" departLane="0" />
    <vehicle id="EW_311" type="car" route="EW" depart="1083" departLane="1" />
    <vehicle id="EW_312" type="car" route="EW" depart="1087" departLane="2" />
    <vehicle id="EW_313" type="car" route="EW" depart="1090" departLane="2" />
    <vehicle id="WE_314" type="car" route="WE" depart="1092" departLane="1" />
    <vehicle id="EW_315" type="bus" route="EW" depart="1092" departLane="0" />
    <vehicle id="EW_316" type="car" route="EW" depart="1098" departLane="1" />
    <vehicle id="WE_317" type="car" route="WE" depart="1101" departLane="1" />
    <vehicle id="WE_318" type="bus" route="WE" depart="1106" departLane="0" />
    <vehicle id="EW_319" type="bus" route="EW" depart="1114" departLane="0" />
    <vehicle id="WE_320" type="car" route="WE" depart="1133" departLane="1" />
    <vehicle id="EW_321" type="bus" route="EW" depart="1136" departLane="0" />
    <vehicle id="WE_322" type="car" route="WE" depart="1143" departLane="1" />
    <vehicle id="WE_323" type="car" route="WE" depart="1153" departLane="2" />
    <vehicle id="WE_324" type="bus" route="WE" depart="1156" departLane="0" />
    <vehicle id="WE_325" type="car" route="WE" depart="1158" departLane="1" />
    <vehicle id="WE_326" type="car" route="WE" depart="1161" departLane="2" />
    <vehicle id="WE_327" type="car" route="WE" depart="1167" departLane="2" />
    <vehicle id="EW_328" type="car" route="EW" depart="1169" departLane="1" />
    <vehicle id="EW_329" type="bus" route="EW" depart="1174" departLane="0" />
    <vehicle id="WE_330" type="car" route="WE" depart="1175" departLane="2" />
    <vehicle id="WE_331" type="car" route="WE" depart="1178" departLane="2" />
    <vehicle id="EW_332" type="car" route="EW" depart="1180" departLane="2" />
    <vehicle id="EW_333" type="car" route="EW" depart="1181" departLane="2" />
    <vehicle id="WE_334" type="bus" route="WE" depart="1188" departLane="0" />
    <vehicle id="WE_335" type="bus" route="WE" depart="1196" departLane="0" />
    <vehicle id="EW_336" type="bus" route="EW" depart="1196" departLane="0" />
    <vehicle id="EW_337" type="bus" route="EW" depart="1202" departLane="0" />
    <vehicle id="WE_338" type="car" route="WE" depart="1210" departLane="1" />
    <vehicle id="EW_339" type="car" route="EW" depart="1210" departLane="2" />
    <vehicle id="WE_340" type="bus" route="WE" depart="1210" departLane="0" />
    <vehicle id="EW_341" type="car" route="EW" depart="1222" departLane="1" />
    <vehicle id="WE_342" type="bus" route="WE" depart="1222" departLane="0" />
    <vehicle id="WE_343" type="bus" route="WE" depart="1224" departLane="0" />
    <vehicle id="WE_344" type="car" route="WE" depart="1233" departLane="2" />
    <vehicle id="WE_345" type="car" route="WE" depart="1238" departLane="1" />
    <vehicle id="WE_346" type="car" route="WE" depart="1239" departLane="2" />
    <vehicle id="EW_347" type="car" route="EW" depart="1239" departLane="1" />
    <vehicle id="WE_348" type="car" route="WE" depart="1241" departLane="2" />
    <vehicle id="EW_349" type="car" route="EW" depart="1242" departLane="1" />
    <vehicle id="WE_350" type="car" route="WE" depart="1250" departLane="1" />
    <vehicle id="WE_351" type="bus" route="WE" depart="1250" departLane="0" />
    <vehicle id="EW_352" type="bus" route="EW" depart="1254" departLane="0" />
    <vehicle id="EW_353" type="car" route="EW" depart="1258" departLane="1" />
    <vehicle id="EW_354" type="car" route="EW" depart="1262" departLane="2" />
    <vehicle id="WE_355" type="bus" route="WE" depart="1274" departLane="0" />
    <vehicle id="EW_356" type="bus" route="EW" depart="1274" departLane="0" />
    <vehicle id="EW_357" type="car" route="EW" depart="1276" departLane="1" />
    <vehicle id="WE_358" type="bus" route="WE" depart="1276" departLane="0" />
    <vehicle id="EW_359" type="bus" route="EW" depart="1276" departLane="0" />
    <vehicle id="WE_360" type="car" route="WE" depart="1282" departLane="2" />
    <vehicle id="WE_361" type="car" route="WE" depart="1283" departLane="1" />
    <vehicle id="EW_362" type="car" route="EW" depart="1283" departLane="1" />
    <vehicle id="EW_363" type="car" route="EW" depart="1286" departLane="1" />
    <vehicle id="EW_364" type="bus" route="EW" depart="1290" departLane="0" />
    <vehicle id="WE_365" type="bus" route="WE" depart="1296" departLane="0" />
    <vehicle id="WE_366" type="car" route="WE" depart="1297" departLane="2" />
    <vehicle id="EW_367" type="car" route="EW" depart="1299" departLane="2" />
    <vehicle id="EW_368" type="car" route="EW" depart="1300" departLane="2" />
    <vehicle id="EW_369" type="bus" route="EW" depart="1300" departLane="0" />
    <vehicle id="WE_370" type="car" route="WE" depart="1309" departLane="1" />
    <vehicle id="WE_371" type="car" route="WE" depart="1313" departLane="2" />
    <vehicle id="EW_372" type="bus" route="EW" depart="1316" departLane="0" />
    <vehicle id="WE_373" type="car" route="WE" depart="1324" departLane="1" />
    <vehicle id="WE_374" type="bus" route="WE" depart="1330" departLane="0" />
    <vehicle id="WE_375" type="car" route="WE" depart="1334" departLane="1" />
    <vehicle id="EW_376" type="car" route="EW" depart="1341" departLane="1" />
    <vehicle id="EW_377" type="car" route="EW" depart="1346" departLane="2" />