<?xml version="1.0" encoding="UTF-8"?>

<!-- generated on Thu Apr  6 11:36:53 2017 by SUMO polyconvert Version 0.28.0
<?xml version="1.0" encoding="UTF-8"?>

<configuration xmlns:xsi="http://www.w3.org/2001/XMLSchema-instance" xsi:noNamespaceSchemaLocation="http://sumo.dlr.de/xsd/polyconvertConfiguration.xsd">

    <input>
        <net-file value="/Users/adds68/sumo-0.28.0/tools/2017-04-06-11-36-45/osm.net.xml"/>
        <osm-files value="osm_bbox.osm.xml"/>
        <osm.keep-full-type value="true"/>
        <type-file value="/Users/adds68/sumo-0.28.0/data/typemap/osmPolyconvert.typ.xml"/>
    </input>

    <output>
        <output-file value="/Users/adds68/sumo-0.28.0/tools/2017-04-06-11-36-45/osm.poly.xml"/>
    </output>

    <processing>
        <poi-layer-offset value="5"/>
    </processing>

    <report>
        <verbose value="true"/>
    </report>

</configuration>
-->

<additional xmlns:xsi="http://www.w3.org/2001/XMLSchema-instance" xsi:noNamespaceSchemaLocation="http://sumo.dlr.de/xsd/additional_file.xsd">
    <location netOffset="-549641.34,-5921778.97" convBoundary="-403.95,-3206.24,4121.19,3473.07" origBoundary="-2.289823,53.376471,-2.190041,53.473701" projParameter="+proj=utm +zone=30 +ellps=WGS84 +datum=WGS84 +units=m +no_defs"/>

    <poly id="102341526" type="leisure.park" color="207,245,201" fill="1" layer="-2.00" shape="2439.49,1748.60 2473.72,1749.95 2500.40,1756.34 2499.83,1730.90 2498.09,1730.20 2496.73,1725.22 2491.39,1722.65 2484.63,1721.84 2482.40,1719.51 2483.06,1697.85 2477.86,1697.50 2476.81,1711.61 2472.67,1724.10 2463.28,1734.42 2439.49,1748.60"/>
    <poly id="111241635" type="amenity.parking" color="184,184,179" fill="1" layer="-1.00" shape="3186.93,2965.35 3210.63,2970.44 3205.99,2991.94 3182.29,2986.85 3186.93,2965.35"/>
    <poly id="113811495" type="building.yes" color="255,230,230" fill="1" layer="-1.00" shape="2433.64,1587.13 2454.71,1563.58 2437.96,1548.67 2416.90,1572.23 2433.64,1587.13"/>
    <poly id="113811496" type="building.yes" color="255,230,230" fill="1" layer="-1.00" shape="2430.28,1917.69 2459.61,1924.50 2461.72,1915.46 2432.39,1908.65 2430.28,1917.69"/>
    <poly id="113811497" type="building.yes" color="255,230,230" fill="1" layer="-1.00" shape="2475.44,1513.26 2457.14,1529.59 2461.30,1534.22 2458.34,1536.87 2463.66,1542.79 2462.20,1544.10 2469.51,1552.23 2485.80,1537.68 2480.12,1531.36 2483.46,1528.37 2478.09,1522.38 2481.16,1519.64 2475.44,1513.26"/>
    <poly id="113811498" type="building.yes" color="255,230,230" fill="1" layer="-1.00" shape="2537.22,1569.42 2547.11,1559.80 2541.15,1553.71 2531.27,1563.35 2537.22,1569.42"/>
    <poly id="113811499" type="building.yes" color="255,230,230" fill="1" layer="-1.00" shape="2355.10,1881.87 2364.13,1883.92 2372.53,1847.28 2363.50,1845.22 2355.10,1881.87"/>
    <poly id="113811500" type="building.yes" color="255,230,230" fill="1" layer="-1.00" shape="2768.44,1632.44 2768.29,1645.92 2779.64,1646.05 2779.79,1632.56 2768.44,1632.44"/>
    <poly id="113811501" type="building.yes" color="255,230,230" fill="1" layer="-1.00" shape="2525.61,1580.58 2535.76,1570.74 2529.87,1564.70 2519.73,1574.55 2525.61,1580.58"/>
    <poly id="113811502" type="building.yes" color="255,230,230" fill="1" layer="-1.00" shape="2519.52,1471.53 2501.84,1488.20 2513.40,1500.40 2531.08,1483.73 2519.52,1471.53"/>
    <poly id="113811503" type="building.yes" color="255,230,230" fill="1" layer="-1.00" shape="2667.75,1687.02 2682.81,1686.75 2682.58,1674.96 2667.53,1675.24 2667.75,1687.02"/>
    <poly id="113811504" type="building.yes" color="255,230,230" fill="1" layer="-1.00" shape="2496.52,1491.46 2481.17,1506.23 2490.83,1516.22 2506.18,1501.46 2496.52,1491.46"/>
    <poly id="113811505" type="building.yes" color="255,230,230" fill="1" layer="-1.00" shape="3021.76,1487.70 3017.58,1457.41 3002.02,1459.55 3006.20,1489.85 3021.76,1487.70"/>
    <poly id="113811506" type="building.yes" color="255,230,230" fill="1" layer="-1.00" shape="2683.09,1696.93 2664.19,1697.83 2664.72,1708.86 2683.61,1707.96 2683.09,1696.93"/>
    <poly id="113811507" type="building.yes" color="255,230,230" fill="1" layer="-1.00" shape="2561.12,1546.23 2571.82,1534.18 2565.26,1528.39 2554.56,1540.44 2561.12,1546.23"/>
    <poly id="113811508" type="building.dormitory" color="255,230,230" fill="1" layer="-1.00" shape="2315.74,1615.03 2326.70,1605.82 2325.82,1604.97 2333.11,1598.70 2325.50,1590.04 2320.01,1594.77 2318.96,1593.78 2313.74,1598.24 2310.37,1601.11 2308.97,1601.28 2307.65,1601.43 2299.82,1596.09 2292.03,1606.67 2305.00,1615.94 2305.49,1615.45 2306.83,1616.28 2308.38,1616.82 2309.96,1617.04 2311.45,1616.85 2312.68,1616.49 2313.80,1615.97 2314.54,1615.35 2315.21,1614.71 2315.74,1615.03"/>
    <poly id="113811509" type="building.yes" color="255,230,230" fill="1" layer="-1.00" shape="2595.88,1809.99 2561.74,1808.24 2559.54,1850.66 2595.46,1852.51 2595.90,1843.96 2569.22,1842.58 2570.47,1818.57 2595.37,1819.86 2595.88,1809.99"/>
    <poly id="113811510" type="building.yes" color="255,230,230" fill="1" layer="-1.00" shape="2548.83,1558.71 2559.65,1547.99 2553.34,1541.65 2542.53,1552.38 2548.83,1558.71"/>
    <poly id="113811511" type="building.yes" color="255,230,230" fill="1" layer="-1.00" shape="2703.18,1795.75 2744.64,1796.89 2744.96,1785.15 2703.50,1784.00 2703.18,1795.75"/>
    <poly id="113811512" type="building.yes" color="255,230,230" fill="1" layer="-1.00" shape="2763.70,1762.04 2777.52,1762.53 2777.92,1751.49 2764.10,1750.99 2763.70,1762.04"/>
    <poly id="113811513" type="building.yes" color="255,230,230" fill="1" layer="-1.00" shape="2348.53,1536.30 2338.53,1545.42 2348.24,1556.31 2358.89,1547.16 2348.53,1536.30"/>
    <poly id="113811514" type="building.yes" color="255,230,230" fill="1" layer="-1.00" shape="2553.22,1514.77 2545.56,1505.83 2539.26,1511.20 2546.92,1520.14 2553.22,1514.77"/>
    <poly id="113811515" type="building.yes" color="255,230,230" fill="1" layer="-1.00" shape="2732.66,1492.15 2744.39,1492.32 2745.26,1428.98 2733.52,1428.82 2732.66,1492.15"/>
    <poly id="113811516" type="building.yes" color="255,230,230" fill="1" layer="-1.00" shape="2913.31,1439.50 2835.09,1427.83 2833.18,1440.53 2911.41,1452.20 2913.31,1439.50"/>
    <poly id="113811517" type="building.yes" color="255,230,230" fill="1" layer="-1.00" shape="2792.57,1764.08 2793.32,1752.48 2780.33,1751.65 2779.58,1763.25 2792.57,1764.08"/>
    <poly id="113811519" type="building.yes" color="255,230,230" fill="1" layer="-1.00" shape="2703.92,1553.24 2721.58,1553.43 2722.06,1510.01 2704.40,1509.82 2703.92,1553.24"/>
    <poly id="113811520" type="building.yes" color="255,230,230" fill="1" layer="-1.00" shape="2767.15,1674.26 2778.71,1674.38 2778.90,1657.10 2767.34,1656.97 2767.15,1674.26"/>
    <poly id="113811521" type="building.yes" color="255,230,230" fill="1" layer="-1.00" shape="3028.98,1534.25 3024.49,1502.87 3010.61,1504.84 3015.10,1536.22 3028.98,1534.25"/>
    <poly id="113811522" type="building.yes" color="255,230,230" fill="1" layer="-1.00" shape="2765.35,1706.74 2775.87,1706.85 2776.03,1691.99 2765.51,1691.87 2765.35,1706.74"/>
    <poly id="113811523" type="building.yes" color="255,230,230" fill="1" layer="-1.00" shape="2580.14,1515.98 2593.23,1529.56 2623.89,1500.16 2610.80,1486.58 2580.14,1515.98"/>
    <poly id="113811524" type="building.yes" color="255,230,230" fill="1" layer="-1.00" shape="2482.16,1787.52 2401.08,1781.89 2399.69,1801.86 2480.77,1807.49 2482.16,1787.52"/>
    <poly id="113811525" type="building.yes" color="255,230,230" fill="1" layer="-1.00" shape="2781.03,1706.91 2791.76,1707.03 2791.92,1692.17 2781.19,1692.05 2781.03,1706.91"/>
    <poly id="113811526" type="building.yes" color="255,230,230" fill="1" layer="-1.00" shape="2488.18,1606.95 2485.56,1623.52 2527.00,1630.05 2529.62,1613.48 2488.18,1606.95"/>
    <poly id="113811527" type="building.yes" color="255,230,230" fill="1" layer="-1.00" shape="2568.38,1503.67 2599.01,1477.39 2591.46,1468.63 2560.84,1494.92 2568.38,1503.67"/>
    <poly id="113811528" type="building.yes" color="255,230,230" fill="1" layer="-1.00" shape="2704.24,1494.61 2721.39,1494.75 2722.04,1420.92 2704.89,1420.76 2704.24,1494.61"/>
    <poly id="113811529" type="building.yes" color="255,230,230" fill="1" layer="-1.00" shape="2995.40,1451.22 2916.86,1439.00 2914.29,1455.47 2992.83,1467.69 2995.40,1451.22"/>
    <poly id="113811530" type="building.yes" color="255,230,230" fill="1" layer="-1.00" shape="2687.13,1496.50 2688.16,1432.22 2673.69,1432.00 2672.65,1496.27 2687.13,1496.50"/>
    <poly id="113811531" type="building.yes" color="255,230,230" fill="1" layer="-1.00" shape="2754.16,1673.77 2765.09,1673.89 2765.27,1657.65 2754.34,1657.53 2754.16,1673.77"/>
    <poly id="113811532" type="building.yes" color="255,230,230" fill="1" layer="-1.00" shape="2594.83,1593.26 2609.85,1593.47 2610.64,1537.48 2595.62,1537.27 2594.83,1593.26"/>
    <poly id="113811533" type="building.yes" color="255,230,230" fill="1" layer="-1.00" shape="2631.56,1594.75 2632.43,1511.47 2621.93,1511.37 2621.06,1594.65 2631.56,1594.75"/>
    <poly id="113811534" type="building.yes" color="255,230,230" fill="1" layer="-1.00" shape="2812.82,1458.38 2829.27,1458.73 2829.94,1427.94 2813.48,1427.59 2812.82,1458.38"/>
    <poly id="113811535" type="building.yes" color="255,230,230" fill="1" layer="-1.00" shape="2352.86,1897.40 2378.32,1905.02 2380.99,1896.14 2355.54,1888.51 2352.86,1897.40"/>
    <poly id="113811537" type="building.yes" color="255,230,230" fill="1" layer="-1.00" shape="2833.74,1461.85 2911.94,1475.68 2914.26,1462.61 2836.06,1448.78 2833.74,1461.85"/>
    <poly id="113811538" type="building.yes" color="255,230,230" fill="1" layer="-1.00" shape="2686.37,1594.81 2687.37,1503.53 2671.26,1503.36 2670.25,1594.63 2686.37,1594.81"/>
    <poly id="113811539" type="building.yes" color="255,230,230" fill="1" layer="-1.00" shape="2516.89,1922.54 2527.18,1925.03 2542.85,1860.37 2532.56,1857.88 2516.89,1922.54"/>
    <poly id="113811541" type="building.yes" color="255,230,230" fill="1" layer="-1.00" shape="2748.47,1796.10 2788.69,1797.93 2789.26,1785.49 2749.03,1783.67 2748.47,1796.10"/>
    <poly id="113811542" type="building.yes" color="255,230,230" fill="1" layer="-1.00" shape="2442.82,1903.57 2455.26,1850.12 2443.97,1847.49 2431.51,1900.95 2442.82,1903.57"/>
    <poly id="113811545" type="building.yes" color="255,230,230" fill="1" layer="-1.00" shape="2759.90,1733.30 2774.75,1733.81 2775.12,1723.11 2760.26,1722.60 2759.90,1733.30"/>
    <poly id="113811547" type="building.yes" color="255,230,230" fill="1" layer="-1.00" shape="2813.00,1500.52 2828.47,1500.69 2828.77,1473.68 2813.30,1473.51 2813.00,1500.52"/>
    <poly id="113811548" type="building.yes" color="255,230,230" fill="1" layer="-1.00" shape="2551.40,1589.72 2549.85,1599.83 2562.37,1601.73 2563.92,1591.63 2551.40,1589.72"/>
    <poly id="113811550" type="building.yes" color="255,230,230" fill="1" layer="-1.00" shape="2463.91,1908.55 2479.05,1845.19 2468.32,1842.64 2453.18,1906.01 2463.91,1908.55"/>
    <poly id="113811551" type="building.yes" color="255,230,230" fill="1" layer="-1.00" shape="2777.83,1734.53 2792.27,1735.04 2792.70,1722.94 2778.26,1722.43 2777.83,1734.53"/>
    <poly id="113811552" type="building.yes" color="255,230,230" fill="1" layer="-1.00" shape="2843.41,1643.00 2843.50,1635.26 2818.74,1634.99 2818.65,1642.73 2820.09,1642.76 2819.97,1646.38 2825.43,1646.44 2825.51,1642.75 2843.41,1643.00"/>
    <poly id="113811554" type="amenity.pub" color="237,199,199" fill="1" layer="-1.00" shape="2258.71,1639.25 2275.49,1656.40 2284.39,1648.68 2276.13,1640.76 2266.42,1631.47 2263.31,1634.40 2258.77,1630.24 2254.98,1635.50 2258.71,1639.25"/>
    <poly id="113811554#1" type="building.yes" color="255,230,230" fill="1" layer="-1.00" shape="2258.71,1639.25 2275.49,1656.40 2284.39,1648.68 2276.13,1640.76 2266.42,1631.47 2263.31,1634.40 2258.77,1630.24 2254.98,1635.50 2258.71,1639.25"/>
    <poly id="113811555" type="building.yes" color="255,230,230" fill="1" layer="-1.00" shape="2780.98,1674.41 2792.74,1674.54 2792.91,1658.99 2781.15,1658.86 2780.98,1674.41"/>
    <poly id="113811556" type="building.yes" color="255,230,230" fill="1" layer="-1.00" shape="2664.50,1789.00 2682.44,1790.97 2683.96,1777.25 2666.02,1775.29 2664.50,1789.00"/>
    <poly id="113811557" type="building.dormitory" color="255,230,230" fill="1" layer="-1.00" shape="2248.04,1623.92 2243.72,1630.54 2253.63,1637.53 2254.98,1635.50 2258.77,1630.24 2262.39,1625.17 2264.85,1621.73 2265.83,1622.42 2268.66,1618.70 2267.65,1617.93 2273.22,1609.47 2276.68,1611.46 2283.99,1602.50 2290.47,1606.05 2298.39,1595.15 2301.19,1591.29 2297.04,1586.00 2295.14,1584.70 2295.79,1583.66 2288.40,1579.05 2288.68,1578.59 2279.16,1572.84 2248.04,1623.92"/>
    <poly id="113811558" type="building.yes" color="255,230,230" fill="1" layer="-1.00" shape="2728.01,1630.95 2727.44,1644.82 2738.78,1645.29 2739.36,1631.42 2728.01,1630.95"/>
    <poly id="113811559" type="building.yes" color="255,230,230" fill="1" layer="-1.00" shape="2723.36,1733.93 2739.46,1734.11 2739.59,1721.66 2723.50,1721.48 2723.36,1733.93"/>
    <poly id="113811560" type="building.yes" color="255,230,230" fill="1" layer="-1.00" shape="2520.96,1595.58 2531.11,1597.24 2532.67,1587.74 2522.52,1586.08 2520.96,1595.58"/>
    <poly id="113811561" type="building.yes" color="255,230,230" fill="1" layer="-1.00" shape="2583.27,1689.78 2610.08,1690.03 2610.19,1677.75 2596.46,1677.63 2596.60,1662.06 2583.53,1661.95 2583.27,1689.78"/>
    <poly id="113811562" type="building.yes" color="255,230,230" fill="1" layer="-1.00" shape="2742.36,1733.11 2757.01,1732.92 2756.88,1722.54 2742.23,1722.72 2742.36,1733.11"/>
    <poly id="113811563" type="building.yes" color="255,230,230" fill="1" layer="-1.00" shape="2535.57,1587.55 2534.42,1596.46 2547.61,1598.15 2548.76,1589.24 2535.57,1587.55"/>
    <poly id="113811564" type="building.yes" color="255,230,230" fill="1" layer="-1.00" shape="2648.18,1458.34 2647.73,1498.85 2658.70,1498.97 2659.14,1458.46 2648.18,1458.34"/>
    <poly id="113811565" type="building.yes" color="255,230,230" fill="1" layer="-1.00" shape="2672.41,1743.06 2682.98,1743.26 2683.30,1726.67 2672.73,1726.46 2672.41,1743.06"/>
    <poly id="113811566" type="building.yes" color="255,230,230" fill="1" layer="-1.00" shape="2487.09,1645.63 2497.55,1646.09 2498.08,1634.37 2487.61,1633.91 2487.09,1645.63"/>
    <poly id="113811567" type="building.yes" color="255,230,230" fill="1" layer="-1.00" shape="2233.87,1678.61 2243.38,1687.46 2259.72,1669.95 2264.84,1674.29 2276.06,1662.34 2271.36,1657.78 2267.90,1661.19 2268.95,1657.53 2266.98,1653.09 2262.61,1651.25 2258.37,1652.34 2255.23,1655.08 2251.46,1652.23 2243.60,1661.23 2247.09,1664.06 2233.87,1678.61"/>
    <poly id="113811568" type="building.yes" color="255,230,230" fill="1" layer="-1.00" shape="2795.68,1570.58 2729.16,1569.56 2728.92,1585.60 2795.44,1586.62 2795.68,1570.58"/>
    <poly id="113811569" type="building.yes" color="255,230,230" fill="1" layer="-1.00" shape="2819.48,1555.69 2829.80,1555.80 2829.95,1541.76 2819.63,1541.65 2819.48,1555.69"/>
    <poly id="113811570" type="building.yes" color="255,230,230" fill="1" layer="-1.00" shape="2672.15,1754.34 2683.38,1754.03 2683.14,1745.60 2671.91,1745.92 2672.15,1754.34"/>
    <poly id="113811571" type="building.yes" color="255,230,230" fill="1" layer="-1.00" shape="2574.28,1620.72 2534.85,1614.21 2532.09,1630.85 2571.52,1637.37 2574.28,1620.72"/>
    <poly id="113811572" type="building.yes" color="255,230,230" fill="1" layer="-1.00" shape="2822.58,1537.35 2830.64,1537.44 2830.80,1523.40 2822.74,1523.31 2822.58,1537.35"/>
    <poly id="113811573" type="building.yes" color="255,230,230" fill="1" layer="-1.00" shape="2771.09,1420.77 2774.38,1406.82 2711.12,1391.96 2707.82,1405.91 2771.09,1420.77"/>
    <poly id="113811574" type="building.yes" color="255,230,230" fill="1" layer="-1.00" shape="2510.42,1593.03 2521.78,1580.98 2516.68,1576.20 2505.32,1588.24 2510.42,1593.03"/>
    <poly id="113811575" type="building.yes" color="255,230,230" fill="1" layer="-1.00" shape="2390.67,1907.75 2416.91,1913.65 2419.03,1904.28 2392.79,1898.37 2390.67,1907.75"/>
    <poly id="113811576" type="building.yes" color="255,230,230" fill="1" layer="-1.00" shape="2536.05,1682.39 2554.28,1682.78 2554.23,1685.33 2571.62,1685.70 2571.91,1672.18 2555.07,1671.82 2555.13,1669.33 2549.74,1669.22 2550.03,1655.10 2536.64,1654.82 2536.05,1682.39"/>
    <poly id="113811577" type="building.yes" color="255,230,230" fill="1" layer="-1.00" shape="2556.05,1443.72 2562.37,1450.06 2570.67,1441.82 2564.35,1435.48 2556.05,1443.72"/>
    <poly id="113811578" type="building.yes" color="255,230,230" fill="1" layer="-1.00" shape="2485.05,1675.26 2494.73,1675.78 2495.39,1663.61 2485.70,1663.09 2485.05,1675.26"/>
    <poly id="113811579" type="building.yes" color="255,230,230" fill="1" layer="-1.00" shape="2999.18,1488.00 3001.03,1476.50 2917.67,1463.16 2915.82,1474.64 2999.18,1488.00"/>
    <poly id="113811580" type="building.yes" color="255,230,230" fill="1" layer="-1.00" shape="2702.93,1672.99 2719.77,1673.24 2720.40,1630.94 2703.56,1630.68 2702.93,1672.99"/>
    <poly id="113811581" type="building.yes" color="255,230,230" fill="1" layer="-1.00" shape="2817.39,1598.89 2826.74,1598.99 2826.91,1583.86 2817.55,1583.76 2817.39,1598.89"/>
    <poly id="113811582" type="building.yes" color="255,230,230" fill="1" layer="-1.00" shape="2679.49,1723.22 2679.16,1711.27 2661.99,1711.75 2662.32,1723.70 2679.49,1723.22"/>
    <poly id="113811583" type="building.yes" color="255,230,230" fill="1" layer="-1.00" shape="2486.14,1659.99 2495.75,1660.86 2496.80,1649.14 2487.19,1648.28 2486.14,1659.99"/>
    <poly id="113811584" type="building.yes" color="255,230,230" fill="1" layer="-1.00" shape="2728.02,1613.25 2793.71,1613.70 2793.84,1596.00 2728.14,1595.55 2728.02,1613.25"/>
    <poly id="113811585" type="building.dormitory" color="255,230,230" fill="1" layer="-1.00" shape="2334.50,1598.19 2350.89,1583.42 2338.00,1569.59 2347.72,1560.74 2341.24,1553.77 2324.80,1569.26 2337.18,1583.18 2328.28,1591.17 2334.50,1598.19"/>
    <poly id="113811586" type="building.yes" color="255,230,230" fill="1" layer="-1.00" shape="2818.29,1576.20 2827.64,1576.30 2827.79,1562.81 2818.44,1562.71 2818.29,1576.20"/>
    <poly id="113811587" type="building.yes" color="255,230,230" fill="1" layer="-1.00" shape="2796.53,1419.56 2796.85,1375.59 2782.47,1375.48 2782.15,1419.46 2796.53,1419.56"/>
    <poly id="113811588" type="building.yes" color="255,230,230" fill="1" layer="-1.00" shape="2487.81,1578.21 2497.82,1567.82 2490.52,1560.81 2480.49,1571.20 2487.81,1578.21"/>
    <poly id="113811589" type="building.yes" color="255,230,230" fill="1" layer="-1.00" shape="2537.93,1458.74 2546.40,1466.55 2558.21,1453.82 2549.75,1446.00 2537.93,1458.74"/>
    <poly id="113811590" type="building.yes" color="255,230,230" fill="1" layer="-1.00" shape="2484.49,1689.85 2493.60,1690.37 2494.26,1678.87 2485.14,1678.35 2484.49,1689.85"/>
    <poly id="113811591" type="building.yes" color="255,230,230" fill="1" layer="-1.00" shape="2704.09,1612.43 2720.43,1612.75 2721.21,1572.65 2704.86,1572.33 2704.09,1612.43"/>
    <poly id="113811592" type="building.yes" color="255,230,230" fill="1" layer="-1.00" shape="2523.83,1545.14 2533.17,1536.40 2526.65,1529.48 2517.31,1538.23 2523.83,1545.14"/>
    <poly id="113811593" type="building.yes" color="255,230,230" fill="1" layer="-1.00" shape="2754.63,1761.59 2761.65,1761.32 2761.24,1750.63 2754.22,1750.89 2754.63,1761.59"/>
    <poly id="113811594" type="building.yes" color="255,230,230" fill="1" layer="-1.00" shape="2536.00,1533.94 2546.33,1524.93 2540.24,1517.97 2529.90,1526.99 2536.00,1533.94"/>
    <poly id="113811595" type="building.yes" color="255,230,230" fill="1" layer="-1.00" shape="2477.63,1588.06 2485.47,1580.68 2478.56,1573.38 2470.73,1580.76 2477.63,1588.06"/>
    <poly id="113811596" type="building.yes" color="255,230,230" fill="1" layer="-1.00" shape="2865.00,1661.50 2865.53,1652.39 2848.05,1651.36 2847.52,1660.47 2865.00,1661.50"/>
    <poly id="113811597" type="building.yes" color="255,230,230" fill="1" layer="-1.00" shape="2750.70,1706.23 2761.84,1706.35 2761.99,1692.87 2750.85,1692.75 2750.70,1706.23"/>
    <poly id="113811598" type="building.yes" color="255,230,230" fill="1" layer="-1.00" shape="2499.49,1566.45 2509.16,1557.71 2502.07,1549.90 2492.40,1558.65 2499.49,1566.45"/>
    <poly id="113811599" type="building.yes" color="255,230,230" fill="1" layer="-1.00" shape="2354.55,1791.10 2347.11,1821.11 2374.64,1827.90 2382.07,1797.88 2354.55,1791.10"/>
    <poly id="113811600" type="building.yes" color="255,230,230" fill="1" layer="-1.00" shape="2727.81,1761.29 2727.67,1749.84 2712.61,1750.02 2712.75,1761.47 2727.81,1761.29"/>
    <poly id="113811601" type="building.yes" color="255,230,230" fill="1" layer="-1.00" shape="2511.67,1555.25 2521.17,1546.77 2514.94,1539.83 2505.44,1548.29 2511.67,1555.25"/>
    <poly id="113811602" type="building.yes" color="255,230,230" fill="1" layer="-1.00" shape="2745.56,1760.46 2745.44,1750.09 2730.58,1750.28 2730.70,1760.64 2745.56,1760.46"/>
    <poly id="113811603" type="building.yes" color="255,230,230" fill="1" layer="-1.00" shape="2727.74,1674.51 2738.46,1674.97 2739.16,1658.80 2728.44,1658.33 2727.74,1674.51"/>
    <poly id="113811604" type="building.yes" color="255,230,230" fill="1" layer="-1.00" shape="2684.36,1638.91 2629.82,1629.45 2626.70,1647.36 2681.24,1656.82 2684.36,1638.91"/>
    <poly id="113811605" type="building.yes" color="255,230,230" fill="1" layer="-1.00" shape="2851.21,1684.30 2851.23,1667.15 2842.81,1667.14 2842.78,1684.28 2851.21,1684.30"/>
    <poly id="113811606" type="building.yes" color="255,230,230" fill="1" layer="-1.00" shape="2720.37,1705.89 2731.52,1705.67 2731.20,1690.16 2720.06,1690.38 2720.37,1705.89"/>
    <poly id="113811607" type="building.yes" color="255,230,230" fill="1" layer="-1.00" shape="2580.01,1570.34 2580.72,1553.53 2572.19,1553.16 2571.48,1569.98 2580.01,1570.34"/>
    <poly id="113811608" type="building.yes" color="255,230,230" fill="1" layer="-1.00" shape="2740.53,1673.96 2751.47,1674.08 2751.64,1658.53 2740.71,1658.41 2740.53,1673.96"/>
    <poly id="113811609" type="building.yes" color="255,230,230" fill="1" layer="-1.00" shape="2630.00,1615.91 2632.05,1602.01 2597.06,1596.90 2595.02,1610.79 2630.00,1615.91"/>
    <poly id="113811610" type="building.yes" color="255,230,230" fill="1" layer="-1.00" shape="2734.82,1705.36 2745.96,1705.49 2746.10,1692.69 2734.96,1692.57 2734.82,1705.36"/>
    <poly id="113811612" type="building.yes" color="255,230,230" fill="1" layer="-1.00" shape="2576.52,1539.10 2569.20,1543.21 2573.34,1550.56 2580.66,1546.45 2576.52,1539.10"/>
    <poly id="113811613" type="building.yes" color="255,230,230" fill="1" layer="-1.00" shape="2702.22,1761.36 2710.68,1761.45 2710.81,1750.05 2702.35,1749.95 2702.22,1761.36"/>
    <poly id="113811614" type="building.yes" color="255,230,230" fill="1" layer="-1.00" shape="2755.23,1632.29 2755.09,1645.43 2766.02,1645.55 2766.17,1632.41 2755.23,1632.29"/>
    <poly id="113811615" type="building.yes" color="255,230,230" fill="1" layer="-1.00" shape="2645.39,1619.35 2684.84,1620.07 2685.14,1603.74 2645.68,1603.03 2645.39,1619.35"/>
    <poly id="113811616" type="building.yes" color="255,230,230" fill="1" layer="-1.00" shape="2564.87,1601.59 2578.71,1604.41 2580.75,1594.36 2566.92,1591.56 2564.87,1601.59"/>
    <poly id="113811617" type="building.yes" color="255,230,230" fill="1" layer="-1.00" shape="2647.32,1594.67 2659.57,1594.81 2660.58,1503.52 2648.33,1503.38 2647.32,1594.67"/>
    <poly id="113811618" type="building.yes" color="255,230,230" fill="1" layer="-1.00" shape="2626.83,1630.31 2585.18,1622.07 2581.80,1639.06 2623.44,1647.31 2626.83,1630.31"/>
    <poly id="113811619" type="building.yes" color="255,230,230" fill="1" layer="-1.00" shape="2494.78,1915.81 2506.03,1918.62 2522.22,1853.96 2510.97,1851.16 2494.78,1915.81"/>
    <poly id="113811620" type="building.yes" color="255,230,230" fill="1" layer="-1.00" shape="2704.27,1706.75 2715.61,1706.88 2715.78,1691.67 2704.43,1691.54 2704.27,1706.75"/>
    <poly id="113811621" type="building.yes" color="255,230,230" fill="1" layer="-1.00" shape="2580.74,1587.38 2581.00,1575.66 2571.38,1575.45 2571.12,1587.18 2580.74,1587.38"/>
    <poly id="113811622" type="building.yes" color="255,230,230" fill="1" layer="-1.00" shape="3005.82,1499.95 2916.34,1486.00 2914.13,1500.05 3003.62,1514.00 3005.82,1499.95"/>
    <poly id="113811623" type="building.yes" color="255,230,230" fill="1" layer="-1.00" shape="2421.98,1897.72 2434.68,1845.57 2424.82,1843.18 2412.12,1895.33 2421.98,1897.72"/>
    <poly id="113811624" type="building.yes" color="255,230,230" fill="1" layer="-1.00" shape="2759.22,1493.56 2770.61,1493.68 2771.28,1433.67 2759.89,1433.54 2759.22,1493.56"/>
    <poly id="113811625" type="building.yes" color="255,230,230" fill="1" layer="-1.00" shape="2741.41,1632.14 2741.70,1646.26 2752.84,1646.04 2752.56,1631.92 2741.41,1632.14"/>
    <poly id="113811626" type="building.yes" color="255,230,230" fill="1" layer="-1.00" shape="2911.82,1487.03 2835.88,1472.68 2833.35,1486.02 2909.28,1500.36 2911.82,1487.03"/>
    <poly id="113811627" type="building.yes" color="255,230,230" fill="1" layer="-1.00" shape="3041.02,1158.42 3071.92,1170.93 3075.86,1161.24 3044.96,1148.73 3041.02,1158.42"/>
    <poly id="113811628" type="building.yes" color="255,230,230" fill="1" layer="-1.00" shape="2796.87,1492.86 2797.93,1442.26 2780.08,1441.89 2779.03,1492.49 2796.87,1492.86"/>
    <poly id="113811629" type="building.yes" color="255,230,230" fill="1" layer="-1.00" shape="2471.95,1928.09 2503.09,1934.48 2504.72,1926.55 2473.58,1920.15 2471.95,1928.09"/>
    <poly id="113811630" type="building.yes" color="255,230,230" fill="1" layer="-1.00" shape="2841.74,1660.13 2842.02,1652.12 2825.54,1651.66 2825.67,1648.19 2820.04,1647.92 2819.89,1653.78 2817.08,1653.81 2817.03,1659.52 2841.74,1660.13"/>
    <poly id="113811631" type="building.yes" color="255,230,230" fill="1" layer="-1.00" shape="2474.45,1911.27 2485.62,1914.13 2502.59,1848.20 2491.43,1845.32 2474.45,1911.27"/>
    <poly id="113811632" type="building.yes" color="255,230,230" fill="1" layer="-1.00" shape="2834.36,1493.73 2831.64,1507.14 2914.00,1523.72 2916.72,1510.31 2834.36,1493.73"/>
    <poly id="113811633" type="building.yes" color="255,230,230" fill="1" layer="-1.00" shape="2383.90,1889.53 2394.18,1845.99 2384.23,1843.64 2373.95,1887.19 2383.90,1889.53"/>
    <poly id="113811634" type="building.yes" color="255,230,230" fill="1" layer="-1.00" shape="2796.68,1555.10 2796.95,1537.12 2729.94,1536.10 2729.66,1554.08 2796.68,1555.10"/>
    <poly id="113811635" type="building.yes" color="255,230,230" fill="1" layer="-1.00" shape="2702.74,1733.36 2719.45,1733.54 2719.59,1720.75 2702.88,1720.56 2702.74,1733.36"/>
    <poly id="113811636" type="building.yes" color="255,230,230" fill="1" layer="-1.00" shape="2918.49,1524.37 3007.38,1534.01 3008.71,1521.77 2919.82,1512.14 2918.49,1524.37"/>
    <poly id="113811637" type="building.yes" color="255,230,230" fill="1" layer="-1.00" shape="2402.17,1893.62 2414.30,1846.21 2404.13,1843.62 2392.00,1891.03 2402.17,1893.62"/>
    <poly id="113811638" type="building.yes" color="255,230,230" fill="1" layer="-1.00" shape="2797.34,1509.75 2730.01,1508.44 2729.67,1525.86 2797.01,1527.16 2797.34,1509.75"/>
    <poly id="113811639" type="building.yes" color="255,230,230" fill="1" layer="-1.00" shape="2818.87,1726.93 2832.33,1726.83 2832.58,1719.04 2841.20,1719.14 2841.04,1726.92 2849.18,1727.27 2849.57,1703.93 2857.26,1704.16 2857.48,1695.28 2819.24,1693.45 2818.87,1726.93"/>
    <poly id="129053756" type="building.yes" color="255,230,230" fill="1" layer="-1.00" shape="2029.07,906.66 2034.50,895.72 2019.49,888.31 2021.62,884.03 2001.85,874.25 1999.57,878.83 1978.71,868.51 1976.16,873.65 1981.27,876.17 1978.30,882.14 1988.53,887.20 1989.91,884.42 2021.38,899.99 2020.24,902.29 2029.07,906.66"/>
    <poly id="129053756#1" type="tourism.museum" color="207,245,201" fill="1" layer="-2.00" shape="2029.07,906.66 2034.50,895.72 2019.49,888.31 2021.62,884.03 2001.85,874.25 1999.57,878.83 1978.71,868.51 1976.16,873.65 1981.27,876.17 1978.30,882.14 1988.53,887.20 1989.91,884.42 2021.38,899.99 2020.24,902.29 2029.07,906.66"/>
    <poly id="135917439" type="building.dormitory" color="255,230,230" fill="1" layer="-1.00" shape="1354.01,2783.47 1361.57,2770.43 1357.29,2767.96 1367.38,2750.58 1333.70,2731.12 1316.06,2761.54 1354.01,2783.47"/>
    <poly id="135918197" type="building.university" color="255,230,230" fill="1" layer="-1.00" shape="1155.61,2733.14 1179.26,2691.96 1161.97,2682.06 1138.31,2723.25 1155.61,2733.14"/>
    <poly id="135918199" type="building.university" color="255,230,230" fill="1" layer="-1.00" shape="1063.79,2715.11 1096.68,2732.74 1133.55,2664.30 1100.65,2646.67 1063.79,2715.11"/>
    <poly id="135919795" type="building.university" color="255,230,230" fill="1" layer="-1.00" shape="1234.58,2272.33 1226.38,2268.53 1229.26,2262.35 1223.50,2259.67 1199.72,2310.74 1180.65,2301.89 1154.49,2358.04 1162.38,2361.71 1164.00,2358.25 1170.02,2361.04 1187.96,2322.51 1195.37,2325.95 1193.45,2330.07 1224.46,2344.45 1230.18,2332.18 1226.80,2330.60 1225.55,2333.27 1204.16,2323.35 1206.72,2317.84 1212.19,2320.38 1234.58,2272.33"/>
    <poly id="135919796" type="building.university" color="255,230,230" fill="1" layer="-1.00" shape="1224.10,2257.83 1240.87,2267.67 1260.61,2262.78 1270.97,2245.65 1266.48,2225.02 1249.27,2213.73 1228.04,2219.27 1217.45,2236.43 1224.10,2257.83"/>