<?xml version="1.0"?>
<!-- generated on 2017-04-06 13:03:14.718125 by $Id: route2trips.py 20433 2016-04-13 08:00:14Z behrisch $ -->
<trips>
    <vType id="bus" vClass="bus"/>
    <trip id="bus0" depart="0.00" departLane="best" from="276432921" to="-155366797#5" type="bus"/>
    <trip id="bus2" depart="4.78" departLane="best" from="280891289#5" to="28005199#3" type="bus"/>
    <trip id="bus3" depart="7.17" departLane="best" from="4741123#1" to="-187813120" type="bus"/>
    <trip id="bus4" depart="9.57" departLane="best" from="-783808#2" to="-155366806#4" type="bus"/>
    <trip id="bus5" depart="11.96" departLane="best" from="-28005199#0" to="172180889#2" type="bus"/>
    <trip id="bus6" depart="14.35" departLane="best" from="-155366795" to="-28118590#1" type="bus"/>
    <trip id="bus7" depart="16.74" departLane="best" from="27927925" to="200573939#2" type="bus"/>
    <trip id="bus8" depart="19.13" departLane="best" from="-28005212" to="27194797#1" type="bus"/>
    <trip id="bus9" depart="21.52" departLane="best" from="358689731#3" to="-144131812#0" type="bus"/>
    <trip id="bus10" depart="23.92" departLane="best" from="332193350#0" to="28006081#5" type="bus"/>
    <trip id="bus11" depart="26.31" departLane="best" from="-4480686#2" to="-27947178" type="bus"/>
    <trip id="bus12" depart="28.70" departLane="best" from="780785#4" to="-4908222#6" type="bus"/>
    <trip id="bus13" depart="31.09" departLane="best" from="-172179594#2" to="-240371193#1" type="bus"/>
    <trip id="bus14" depart="33.48" departLane="best" from="4422115" to="27683069#2" type="bus"/>
    <trip id="bus15" depart="35.87" departLane="best" from="358689731#0" to="28022611" type="bus"/>
    <trip id="bus18" depart="43.05" departLane="best" from="4350887#6" to="27930290" type="bus"/>
    <trip id="bus19" depart="45.44" departLane="best" from="452433966#0" to="254843652#1" type="bus"/>
    <trip id="bus20" depart="47.83" departLane="best" from="-28005710" to="-4794979" type="bus"/>
    <trip id="bus21" depart="50.22" departLane="best" from="-170127998" to="-4316785#2" type="bus"/>
    <trip id="bus22" depart="52.61" departLane="best" from="-172944688" to="-4579079#2" type="bus"/>
    <trip id="bus23" depart="55.00" departLane="best" from="273025784" to="-79716214#0" type="bus"/>
    <trip id="bus24" depart="57.40" departLane="best" from="-4795024" to="-285717962#5" type="bus"/>
    <trip id="bus25" depart="59.79" departLane="best" from="-28022616" to="4796095#2" type="bus"/>
    <trip id="bus26" depart="62.18" departLane="best" from="-27930287#1" to="28022610" type="bus"/>
    <trip id="bus27" depart="64.57" departLane="best" from="-27683089#4" to="-83299922" type="bus"/>
    <trip id="bus28" depart="66.96" departLane="best" from="8057868#0" to="27947026#1" type="bus"/>
    <trip id="bus30" depart="71.75" departLane="best" from="4419018#2" to="281204920#1" type="bus"/>
    <trip id="bus31" depart="74.14" departLane="best" from="-28005740" to="-155366813" type="bus"/>
    <trip id="bus32" depart="76.53" departLane="best" from="-4350887#2" to="-4480692" type="bus"/>
    <trip id="bus33" depart="78.92" departLane="best" from="-28004051#1" to="4796160#0" type="bus"/>
    <trip id="bus34" depart="81.31" departLane="best" from="27930596#13" to="139285667" type="bus"/>
    <trip id="bus35" depart="83.70" departLane="best" from="4796066#1" to="159229460" type="bus"/>
    <trip id="bus36" depart="86.09" departLane="best" from="-28022611" to="-4375201#2" type="bus"/>
    <trip id="bus37" depart="88.49" departLane="best" from="173253726#1" to="-4469143#1" type="bus"/>
    <trip id="bus39" depart="93.27" departLane="best" from="86326099#1" to="172944655" type="bus"/>
    <trip id="bus40" depart="95.66" departLane="best" from="-172179593" to="-160278564#8" type="bus"/>
    <trip id="bus41" depart="98.05" departLane="best" from="-173253123#5" to="27934794#4" type="bus"/>
    <trip id="bus42" depart="100.44" departLane="best" from="310763705#1" to="155366776#2" type="bus"/>
    <trip id="bus43" depart="102.83" departLane="best" from="-160278681" to="-85619401#6" type="bus"/>
    <trip id="bus44" depart="105.23" departLane="best" from="86326091#4" to="175292106" type="bus"/>
    <trip id="bus45" depart="107.62" departLane="best" from="79710857" to="4419029#1" type="bus"/>
    <trip id="bus46" depart="110.01" departLane="best" from="-154533143#6" to="28008219" type="bus"/>
    <trip id="bus48" depart="114.79" departLane="best" from="4579080#4" to="-4480684#0" type="bus"/>
    <trip id="bus49" depart="117.18" departLane="best" from="155366806#0" to="-28006081#5" type="bus"/>
    <trip id="bus50" depart="119.58" departLane="best" from="4795935#0" to="4480688#1" type="bus"/>
    <trip id="bus51" depart="121.97" departLane="best" from="-358689731#19" to="27947020#6" type="bus"/>
    <trip id="bus52" depart="124.36" departLane="best" from="281177196" to="196901829#3" type="bus"/>
    <trip id="bus54" depart="129.14" departLane="best" from="-113811553#2" to="-4796162" type="bus"/>
    <trip id="bus55" depart="131.53" departLane="best" from="-155366777#4" to="4796077#5" type="bus"/>
    <trip id="bus56" depart="133.92" departLane="best" from="-4270618#2" to="-168752264#1" type="bus"/>
    <trip id="bus58" depart="138.71" departLane="best" from="-172175269#1" to="170125316" type="bus"/>
    <trip id="bus59" depart="141.10" departLane="best" from="-167907533" to="281169687#3" type="bus"/>
    <trip id="bus61" depart="145.88" departLane="best" from="-28022611" to="4480691" type="bus"/>
    <trip id="bus62" depart="148.27" departLane="best" from="-783855" to="-289876861" type="bus"/>
    <trip id="bus63" depart="150.66" departLane="best" from="-28000374#2" to="-4796084" type="bus"/>
    <trip id="bus64" depart="153.06" departLane="best" from="85619402#1" to="28000373" type="bus"/>
    <trip id="bus66" depart="157.84" departLane="best" from="-187325492" to="-4270613" type="bus"/>
    <trip id="bus67" depart="160.23" departLane="best" from="-4469143#0" to="26742522" type="bus"/>
    <trip id="bus68" depart="162.62" departLane="best" from="-28005741" to="-358689731#2" type="bus"/>
    <trip id="bus69" depart="165.01" departLane="best" from="-168316894" to="27934838#4" type="bus"/>
    <trip id="bus70" depart="167.41" departLane="best" from="-28005738#2" to="4790990#3" type="bus"/>
    <trip id="bus72" depart="172.19" departLane="best" from="-28004351#1" to="-27930596#13" type="bus"/>
    <trip id="bus73" depart="174.58" departLane="best" from="4796161#1" to="24551499#0" type="bus"/>
    <trip id="bus75" depart="179.36" departLane="best" from="358689731#10" to="-28008221#0" type="bus"/>
    <trip id="bus76" depart="181.75" departLane="best" from="-172944655" to="155366795" type="bus"/>
    <trip id="bus77" depart="184.15" departLane="best" from="-785008#0" to="159229648#1" type="bus"/>
    <trip id="bus79" depart="188.93" departLane="best" from="-4809804#1" to="-750748#3" type="bus"/>
    <trip id="bus80" depart="191.32" departLane="best" from="452433966#0" to="-4418983#1" type="bus"/>
    <trip id="bus81" depart="193.71" departLane="best" from="-783808#1" to="-4641140" type="bus"/>
    <trip id="bus82" depart="196.10" departLane="best" from="-28008177" to="4795935#2" type="bus"/>
    <trip id="bus83" depart="198.50" departLane="best" from="-86326091#7" to="4419029#12" type="bus"/>
    <trip id="bus84" depart="200.89" departLane="best" from="931013#0" to="4270616#3" type="bus"/>
    <trip id="bus85" depart="203.28" departLane="best" from="79708053#0" to="4796067#2" type="bus"/>
    <trip id="bus86" depart="205.67" departLane="best" from="4422125#0" to="-28004358#0" type="bus"/>
    <trip id="bus87" depart="208.06" departLane="best" from="155002223#2" to="-310763705#2" type="bus"/>
    <trip id="bus89" depart="212.84" departLane="best" from="-4795938" to="8057769#3" type="bus"/>
    <trip id="bus90" depart="215.24" departLane="best" from="-28022612" to="281855026#3" type="bus"/>
    <trip id="bus91" depart="217.63" departLane="best" from="136502877" to="155366777#2" type="bus"/>
    <trip id="bus92" depart="220.02" departLane="best" from="780785#4" to="86326101" type="bus"/>
    <trip id="bus94" depart="224.80" departLane="best" from="-27194798#3" to="-4795544#0" type="bus"/>
    <trip id="bus95" depart="227.19" departLane="best" from="79708053#0" to="254843654#6" type="bus"/>
    <trip id="bus96" depart="229.58" departLane="best" from="-159229578" to="258884959" type="bus"/>
    <trip id="bus97" depart="231.98" departLane="best" from="155366806#6" to="4375201#3" type="bus"/>
    <trip id="bus98" depart="234.37" departLane="best" from="-27194805" to="751405#1" type="bus"/>
    <trip id="bus99" depart="236.76" departLane="best" from="-28005994" to="-27194806#0" type="bus"/>
    <trip id="bus100" depart="239.15" departLane="best" from="473610952" to="-4375201#18" type="bus"/>
    <trip id="bus102" depart="243.93" departLane="best" from="-780785#4" to="258884959" type="bus"/>
    <trip id="bus103" depart="246.33" departLane="best" from="163384340#0" to="4796089#1" type="bus"/>
    <trip id="bus104" depart="248.72" departLane="best" from="-28006081#7" to="139285667" type="bus"/>
    <trip id="bus105" depart="251.11" departLane="best" from="27947020#10" to="-4795548" type="bus"/>
    <trip id="bus106" depart="253.50" departLane="best" from="-168317808" to="159229455" type="bus"/>
    <trip id="bus107" depart="255.89" departLane="best" from="86326107#0" to="86326102" type="bus"/>
    <trip id="bus108" depart="258.28" departLane="best" from="-168605805#0" to="-310763704#0" type="bus"/>
    <trip id="bus109" depart="260.67" departLane="best" from="-28022612" to="4796081#7" type="bus"/>
    <trip id="bus110" depart="263.07" departLane="best" from="463528552" to="457097115#1" type="bus"/>
    <trip id="bus111" depart="265.46" departLane="best" from="-4794980" to="-28000371#0" type="bus"/>
    <trip id="bus112" depart="267.85" departLane="best" from="4375190#6" to="28006261" type="bus"/>
    <trip id="bus113" depart="270.24" departLane="best" from="240375811#0" to="8057873" type="bus"/>
    <trip id="bus114" depart="272.63" departLane="best" from="27930289" to="-144270072" type="bus"/>
    <trip id="bus115" depart="275.02" departLane="best" from="4270614#1" to="-4795547" type="bus"/>
    <trip id="bus116" depart="277.41" departLane="best" from="27934794#4" to="4796153#0" type="bus"/>
    <trip id="bus119" depart="284.59" departLane="best" from="-28118590#3" to="27683087#0" type="bus"/>
    <trip id="bus120" depart="286.98" departLane="best" from="28008169" to="-282047776" type="bus"/>
    <trip id="bus121" depart="289.37" departLane="best" from="273025778#0" to="-4480684#0" type="bus"/>
    <trip id="bus122" depart="291.76" departLane="best" from="155366775" to="4790990#3" type="bus"/>
    <trip id="bus123" depart="294.16" departLane="best" from="4419029#13" to="-200573939#8" type="bus"/>
    <trip id="bus124" depart="296.55" departLane="best" from="-785008#0" to="-4575267" type="bus"/>
    <trip id="bus125" depart="298.94" departLane="best" from="-117960883#3" to="281204904" type="bus"/>
    <trip id="bus126" depart="301.33" departLane="best" from="273025785" to="-4422127#9" type="bus"/>
    <trip id="bus128" depart="306.11" departLane="best" from="-79716216" to="-154533143#0" type="bus"/>
    <trip id="bus129" depart="308.50" departLane="best" from="-168606160" to="457097643#2" type="bus"/>
    <trip id="bus130" depart="310.90" departLane="best" from="4795286#1" to="200573939#5" type="bus"/>
    <trip id="bus131" depart="313.29" departLane="best" from="4375192#2" to="255408072" type="bus"/>
    <trip id="bus132" depart="315.68" departLane="best" from="-254846268#0" to="-27929216" type="bus"/>
    <trip id="bus133" depart="318.07" departLane="best" from="-4270618#7" to="4705161" type="bus"/>
    <trip id="bus134" depart="320.46" departLane="best" from="313322999#1" to="4419029#0" type="bus"/>
    <trip id="bus135" depart="322.85" departLane="best" from="4795021#0" to="-285717962#8" type="bus"/>
    <trip id="bus136" depart="325.24" departLane="best" from="282047778#0" to="457097643#4" type="bus"/>
    <trip id="bus137" depart="327.64" departLane="best" from="-4810651#1" to="27930596#9" type="bus"/>
    <trip id="bus138" depart="330.03" departLane="best" from="-27194798#1" to="4796077#8" type="bus"/>
    <trip id="bus139" depart="332.42" departLane="best" from="4525228#2" to="79716216" type="bus"/>
    <trip id="bus140" depart="334.81" departLane="best" from="-155366791#1" to="280891289#4" type="bus"/>
    <trip id="bus142" depart="339.59" departLane="best" from="366385521#0" to="-4480689" type="bus"/>
    <trip id="bus143" depart="341.99" departLane="best" from="285717962#4" to="-246018189" type="bus"/>
    <trip id="bus144" depart="344.38" departLane="best" from="457097648#1" to="4419019#0" type="bus"/>
    <trip id="bus145" depart="346.77" departLane="best" from="-28005360" to="332173738#0" type="bus"/>
    <trip id="bus146" depart="349.16" departLane="best" from="144131812#2" to="-4796071" type="bus"/>
    <trip id="bus148" depart="353.94" departLane="best" from="-155366788" to="-28022621" type="bus"/>
    <trip id="bus149" depart="356.33" departLane="best" from="-4419017#6" to="4422125#4" type="bus"/>
    <trip id="bus150" depart="358.73" departLane="best" from="79707615" to="-4705141#0" type="bus"/>
    <trip id="bus152" depart="363.51" departLane="best" from="79819879" to="187468544#1" type="bus"/>
    <trip id="bus153" depart="365.90" departLane="best" from="4796167#1" to="-258884958" type="bus"/>
    <trip id="bus155" depart="370.68" departLane="best" from="28022576" to="-4796089#0" type="bus"/>
    <trip id="bus157" depart="375.47" departLane="best" from="-4796078#1" to="254843650" type="bus"/>
    <trip id="bus158" depart="377.86" departLane="best" from="-28008218#2" to="28006467" type="bus"/>
    <trip id="bus159" depart="380.25" departLane="best" from="-113811611#4" to="4796065#1" type="bus"/>
    <trip id="bus161" depart="385.03" departLane="best" from="280893530#3" to="28004729#0" type="bus"/>
    <trip id="bus162" depart="387.42" departLane="best" from="27934801#4" to="-4809806#0" type="bus"/>
    <trip id="bus163" depart="389.82" departLane="best" from="28008174#0" to="-4795548" type="bus"/>
    <trip id="bus165" depart="394.60" departLane="best" from="-4809804#0" to="-4795543#0" type="bus"/>
    <trip id="bus167" depart="399.38" departLane="best" from="4808620#0" to="28005200#1" type="bus"/>
    <trip id="bus168" depart="401.77" departLane="best" from="4795285#0" to="27930285#3" type="bus"/>
    <trip id="bus170" depart="406.56" departLane="best" from="-113811553#1" to="-4794929#2" type="bus"/>
    <trip id="bus171" depart="408.95" departLane="best" from="-79823939" to="254843656" type="bus"/>
    <trip id="bus172" depart="411.34" departLane="best" from="27930289" to="159229581" type="bus"/>
    <trip id="bus173" depart="413.73" departLane="best" from="-86326091#2" to="-310763705#2" type="bus"/>
    <trip id="bus175" depart="418.51" departLane="best" from="313322999#0" to="-28005200#0" type="bus"/>
    <trip id="bus176" depart="420.91" departLane="best" from="-172174899#2" to="172944691" type="bus"/>
    <trip id="bus177" depart="423.30" departLane="best" from="27214342" to="-4810653#0" type="bus"/>
    <trip id="bus178" depart="425.69" departLane="best" from="4270616#6" to="281165180#0" type="bus"/>
    <trip id="bus179" depart="428.08" departLane="best" from="27947020#5" to="-4270613" type="bus"/>
    <trip id="bus180" depart="430.47" departLane="best" from="-28000156#2" to="-155366797#1" type="bus"/>
    <trip id="bus181" depart="432.86" departLane="best" from="-28006280" to="165420774#5" type="bus"/>
    <trip id="bus183" depart="437.65" departLane="best" from="-780214#2" to="27934811#0" type="bus"/>
    <trip id="bus184" depart="440.04" departLane="best" from="-27947116#1" to="28006068" type="bus"/>
    <trip id="bus185" depart="442.43" departLane="best" from="155366789" to="-4375201#0" type="bus"/>
    <trip id="bus186" depart="444.82" departLane="best" from="27930596#5" to="-143886248#0" type="bus"/>
    <trip id="bus187" depart="447.21" departLane="best" from="281165181#2" to="281204899" type="bus"/>
    <trip id="bus188" depart="449.60" departLane="best" from="-172944699#1" to="155366779#0" type="bus"/>
    <trip id="bus189" depart="451.99" departLane="best" from="-27930617" to="5137877" type="bus"/>
    <trip id="bus190" depart="454.39" departLane="best" from="159229529" to="-163384340#6" type="bus"/>
    <trip id="bus191" depart="456.78" departLane="best" from="-28008172#0" to="4375190#2" type="bus"/>
    <trip id="bus192" depart="459.17" departLane="best" from="27934843#1" to="83299921#1" type="bus"/>
    <trip id="bus194" depart="463.95" departLane="best" from="4741115#4" to="27683105" type="bus"/>
    <trip id="bus195" depart="466.34" departLane="best" from="28008173" to="172179594#2" type="bus"/>
    <trip id="bus199" depart="475.91" departLane="best" from="-28006372#3" to="27947020#14" type="bus"/>
    <trip id="bus201" depart="480.69" departLane="best" from="26742519#0" to="-457097115#26" type="bus"/>
    <trip id="bus202" depart="483.08" departLane="best" from="-170124444" to="-4794926#0" type="bus"/>
    <trip id="bus203" depart="485.48" departLane="best" from="-28118590#0" to="-4796154#0" type="bus"/>
    <trip id="bus204" depart="487.87" departLane="best" from="28005435#4" to="-172944621#6" type="bus"/>
    <trip id="bus206" depart="492.65" departLane="best" from="-780215#1" to="-282948212" type="bus"/>
    <trip id="bus208" depart="497.43" departLane="best" from="4480686#1" to="281177199#8" type="bus"/>
    <trip id="bus209" depart="499.82" departLane="best" from="-4796066#1" to="-144131812#0" type="bus"/>
    <trip id="bus210" depart="502.22" departLane="best" from="-457097643#2" to="281165180#9" type="bus"/>
    <trip id="bus211" depart="504.61" departLane="best" from="4469140" to="4810651#1" type="bus"/>
    <trip id="bus212" depart="507.00" departLane="best" from="-28005213#1" to="-358689731#15" type="bus"/>
    <trip id="bus213" depart="509.39" departLane="best" from="-8057769#3" to="-155366806#1" type="bus"/>
    <trip id="bus214" depart="511.78" departLane="best" from="-4422127#0" to="28005213#4" type="bus"/>
    <trip id="bus215" depart="514.17" departLane="best" from="-4810204" to="-28004054#2" type="bus"/>
    <trip id="bus217" depart="518.96" departLane="best" from="254843655#2" to="-155366802" type="bus"/>
    <trip id="bus218" depart="521.35" departLane="best" from="-4796154#1" to="239261310#2" type="bus"/>
    <trip id="bus219" depart="523.74" departLane="best" from="-155366797#2" to="27947089#2" type="bus"/>
    <trip id="bus220" depart="526.13" departLane="best" from="-239261309#1" to="159229497" type="bus"/>
    <trip id="bus221" depart="528.52" departLane="best" from="-159229453#1" to="-83299921#1" type="bus"/>
    <trip id="bus223" depart="533.31" departLane="best" from="281171345#4" to="-83299921#1" type="bus"/>
    <trip id="bus224" depart="535.70" departLane="best" from="281165181#8" to="389962087#1" type="bus"/>
    <trip id="bus225" depart="538.09" departLane="best" from="-28008212#0" to="-175292108#0" type="bus"/>
    <trip id="bus226" depart="540.48" departLane="best" from="-155366777#4" to="196901829#3" type="bus"/>
    <trip id="bus227" depart="542.87" departLane="best" from="96747813#2" to="-79707604" type="bus"/>
    <trip id="bus228" depart="545.26" departLane="best" from="27927925" to="281855013" type="bus"/>
    <trip id="bus229" depart="547.66" departLane="best" from="27929253#0" to="281165181#4" type="bus"/>
    <trip id="bus230" depart="550.05" departLane="best" from="4908222#8" to="-28118590#4" type="bus"/>
    <trip id="bus231" depart="552.44" departLane="best" from="-155366778" to="-27947069#0" type="bus"/>
    <trip id="bus233" depart="557.22" departLane="best" from="175291372#0" to="-358689731#0" type="bus"/>
    <trip id="bus234" depart="559.61" departLane="best" from="-277482083" to="27683090" type="bus"/>
    <trip id="bus235" depart="562.00" departLane="best" from="281165178#3" to="-254846268#1" type="bus"/>
    <trip id="bus236" depart="564.40" departLane="best" from="4270618#3" to="780566#0" type="bus"/>
    <trip id="bus238" depart="569.18" departLane="best" from="-4316785#14" to="28005200#1" type="bus"/>
    <trip id="bus239" depart="571.57" departLane="best" from="783632#0" to="139285668#1" type="bus"/>
    <trip id="bus240" depart="573.96" departLane="best" from="28006353" to="-173253123#2" type="bus"/>
    <trip id="bus242" depart="578.74" departLane="best" from="4422125#7" to="27451177#3" type="bus"/>
    <trip id="bus243" depart="581.14" departLane="best" from="-187325492" to="8057767#1" type="bus"/>
    <trip id="bus244" depart="583.53" departLane="best" from="282948120#1" to="-783806" type="bus"/>
    <trip id="bus246" depart="588.31" departLane="best" from="155366822#1" to="-780214#2" type="bus"/>
    <trip id="bus247" depart="590.70" departLane="best" from="4422125#3" to="334619209" type="bus"/>
    <trip id="bus250" depart="597.88" departLane="best" from="28005738#2" to="155366804" type="bus"/>
    <trip id="bus251" depart="600.27" departLane="best" from="280891285" to="780643" type="bus"/>
    <trip id="bus252" depart="602.66" departLane="best" from="-281177199#1" to="313323002" type="bus"/>
    <trip id="bus254" depart="607.44" departLane="best" from="-8057769#2" to="28022612" type="bus"/>
    <trip id="bus255" depart="609.83" departLane="best" from="-281165179" to="4375201#15" type="bus"/>
    <trip id="bus256" depart="612.23" departLane="best" from="4372116#0" to="-187468548" type="bus"/>
    <trip id="bus257" depart="614.62" departLane="best" from="463528554" to="-4375201#0" type="bus"/>
    <trip id="bus259" depart="619.40" departLane="best" from="-4795938" to="-155366806#0" type="bus"/>
    <trip id="bus260" depart="621.79" departLane="best" from="4422126#0" to="-28006360" type="bus"/>
    <trip id="bus261" depart="624.18" departLane="best" from="-4480686#2" to="457097115#15" type="bus"/>
    <trip id="bus262" depart="626.57" departLane="best" from="28005198" to="-457097643#2" type="bus"/>
    <trip id="bus263" depart="628.97" departLane="best" from="-146362110" to="4808621#2" type="bus"/>
    <trip id="bus264" depart="631.36" departLane="best" from="-172175269#1" to="28008218#0" type="bus"/>
    <trip id="bus265" depart="633.75" departLane="best" from="155366775" to="281169678#2" type="bus"/>
    <trip id="bus266" depart="636.14" departLane="best" from="28004046#0" to="28000151#1" type="bus"/>
    <trip id="bus267" depart="638.53" departLane="best" from="155366782" to="285717964#0" type="bus"/>
    <trip id="bus268" depart="640.92" departLane="best" from="-172180889#0" to="-389962084" type="bus"/>
    <trip id="bus269" depart="643.32" departLane="best" from="28004050#1" to="-4796073" type="bus"/>
    <trip id="bus270" depart="645.71" departLane="best" from="168605805#1" to="155366782" type="bus"/>
    <trip id="bus272" depart="650.49" departLane="best" from="28005201" to="-4525229#0" type="bus"/>
    <trip id="bus274" depart="655.27" departLane="best" from="-27947062#1" to="-27194804#1" type="bus"/>
    <trip id="bus276" depart="660.06" departLane="best" from="-27942917" to="-332193350#0" type="bus"/>
    <trip id="bus277" depart="662.45" departLane="best" from="154979768" to="28016097" type="bus"/>
    <trip id="bus278" depart="664.84" departLane="best" from="79714753#0" to="175277924#1" type="bus"/>
    <trip id="bus280" depart="669.62" departLane="best" from="-27947089#1" to="-4270618#3" type="bus"/>
    <trip id="bus281" depart="672.01" departLane="best" from="-27934794#2" to="-155002223#1" type="bus"/>
    <trip id="bus284" depart="679.19" departLane="best" from="28004729#0" to="-27927925" type="bus"/>
    <trip id="bus285" depart="681.58" departLane="best" from="457097115#22" to="170130363" type="bus"/>
    <trip id="bus286" depart="683.97" departLane="best" from="4575267" to="253152096#12" type="bus"/>
    <trip id="bus288" depart="688.75" departLane="best" from="-27942914#2" to="-165420774#3" type="bus"/>
    <trip id="bus290" depart="693.54" departLane="best" from="-159229473#1" to="-27947021" type="bus"/>
    <trip id="bus291" depart="695.93" departLane="best" from="175290823#0" to="-4796067#2" type="bus"/>
    <trip id="bus292" depart="698.32" departLane="best" from="85619401#3" to="-27194798#5" type="bus"/>
    <trip id="bus293" depart="700.71" departLane="best" from="281177199#9" to="27683089#3" type="bus"/>
    <trip id="bus295" depart="705.49" departLane="best" from="163384340#0" to="159229371" type="bus"/>
    <trip id="bus296" depart="707.89" departLane="best" from="-86326091#5" to="4419019#7" type="bus"/>
    <trip id="bus297" depart="710.28" departLane="best" from="8057873" to="-4796072" type="bus"/>
    <trip id="bus298" depart="712.67" departLane="best" from="254843654#7" to="27683099#2" type="bus"/>
    <trip id="bus299" depart="715.06" departLane="best" from="280893528#4" to="4808621#0" type="bus"/>
    <trip id="bus300" depart="717.45" departLane="best" from="-28004046#1" to="-285717964#1" type="bus"/>
    <trip id="bus302" depart="722.24" departLane="best" from="-113811611#6" to="159229371" type="bus"/>
    <trip id="bus304" depart="727.02" departLane="best" from="28005203" to="159229389" type="bus"/>
    <trip id="bus306" depart="731.80" departLane="best" from="285717962#6" to="27930625#1" type="bus"/>
    <trip id="bus307" depart="734.19" departLane="best" from="27934781#3" to="4796083" type="bus"/>
    <trip id="bus311" depart="743.76" departLane="best" from="-27683106#2" to="-4796077#5" type="bus"/>
    <trip id="bus313" depart="748.54" departLane="best" from="-289876967" to="-27683097" type="bus"/>
    <trip id="bus314" depart="750.93" departLane="best" from="28004044" to="28006143#2" type="bus"/>
    <trip id="bus315" depart="753.32" departLane="best" from="4809806#0" to="172178438" type="bus"/>
    <trip id="bus316" depart="755.72" departLane="best" from="155366789" to="-175292105#0" type="bus"/>
    <trip id="bus317" depart="758.11" departLane="best" from="-155367908#1" to="155366797#5" type="bus"/>
    <trip id="bus318" depart="760.50" departLane="best" from="-172179593" to="780214#3" type="bus"/>
    <trip id="bus319" depart="762.89" departLane="best" from="4375201#0" to="253152096#3" type="bus"/>
    <trip id="bus320" depart="765.28" departLane="best" from="718463#0" to="931013#1" type="bus"/>
    <trip id="bus321" depart="767.67" departLane="best" from="27947020#2" to="-4525210#5" type="bus"/>
    <trip id="bus322" depart="770.07" departLane="best" from="-155367908#11" to="281166164#2" type="bus"/>
    <trip id="bus324" depart="774.85" departLane="best" from="4796068#2" to="-28006327" type="bus"/>
    <trip id="bus325" depart="777.24" departLane="best" from="218104792" to="27944073#0" type="bus"/>
    <trip id="bus326" depart="779.63" departLane="best" from="155366787#12" to="-200573939#2" type="bus"/>
    <trip id="bus327" depart="782.02" departLane="best" from="-457097115#1" to="-4810281#0" type="bus"/>
    <trip id="bus328" depart="784.41" departLane="best" from="27944183#0" to="4419017#6" type="bus"/>
    <trip id="bus329" depart="786.81" departLane="best" from="-4419019#2" to="28006027#1" type="bus"/>
    <trip id="bus330" depart="789.20" departLane="best" from="-289876401" to="4796166#0" type="bus"/>
    <trip id="bus331" depart="791.59" departLane="best" from="389962085#1" to="206396664" type="bus"/>
    <trip id="bus332" depart="793.98" departLane="best" from="136502877" to="-4796090#2" type="bus"/>
    <trip id="bus333" depart="796.37" departLane="best" from="-4375201#2" to="783808#0" type="bus"/>
    <trip id="bus335" depart="801.15" departLane="best" from="8057769#3" to="28004046#1" type="bus"/>
    <trip id="bus336" depart="803.55" departLane="best" from="172175269#2" to="154533143#4" type="bus"/>
    <trip id="bus337" depart="805.94" departLane="best" from="281169679" to="27930625#1" type="bus"/>
    <trip id="bus338" depart="808.33" departLane="best" from="281169699#1" to="-282047776" type="bus"/>
    <trip id="bus339" depart="810.72" departLane="best" from="172944680" to="4796070" type="bus"/>
    <trip id="bus340" depart="813.11" departLane="best" from="-83299918" to="28006081#6" type="bus"/>
    <trip id="bus341" depart="815.50" departLane="best" from="-187325495#1" to="79707609#1" type="bus"/>
    <trip id="bus343" depart="820.29" departLane="best" from="-27194806#2" to="224593320#1" type="bus"/>
    <trip id="bus344" depart="822.68" departLane="best" from="83302178#0" to="4794976" type="bus"/>
    <trip id="bus346" depart="827.46" departLane="best" from="4372116#6" to="172176965#2" type="bus"/>
    <trip id="bus347" depart="829.85" departLane="best" from="79819309#0" to="-4375201#0" type="bus"/>
    <trip id="bus349" depart="834.64" departLane="best" from="4796081#2" to="172944624#1" type="bus"/>
    <trip id="bus350" depart="837.03" departLane="best" from="463528543#0" to="4422125#3" type="bus"/>
    <trip id="bus351" depart="839.42" departLane="best" from="-780215#0" to="4796088" type="bus"/>
    <trip id="bus353" depart="844.20" departLane="best" from="-285717961#1" to="-4795546#0" type="bus"/>
    <trip id="bus355" depart="848.98" departLane="best" from="155366776#3" to="-27947020#8" type="bus"/>
    <trip id="bus358" depart="856.16" departLane="best" from="136502877" to="-4796155#1" type="bus"/>
    <trip id="bus359" depart="858.55" departLane="best" from="-27947020#10" to="28006081#1" type="bus"/>
    <trip id="bus360" depart="860.94" departLane="best" from="187468544#0" to="-4316785#21" type="bus"/>
    <trip id="bus361" depart="863.33" departLane="best" from="281855024" to="-159229480" type="bus"/>
    <trip id="bus363" depart="868.12" departLane="best" from="27934801#1" to="332193352#1" type="bus"/>