<?xml version="1.0"?>
<!-- generated on 2017-04-06 13:03:12.336527 by $Id: route2trips.py 20433 2016-04-13 08:00:14Z behrisch $ -->
<trips>
    <vType id="passenger" vClass="passenger"/>
    <trip id="veh0" depart="0.00" departLane="best" from="200574632#0" to="-155366787#14" type="passenger"/>
    <trip id="veh1" depart="1.20" departLane="best" from="28006360" to="27947116#3" type="passenger"/>
    <trip id="veh2" depart="2.39" departLane="best" from="4795939" to="-173253726#1" type="passenger"/>
    <trip id="veh3" depart="3.59" departLane="best" from="-4790990#0" to="-155366792" type="passenger"/>
    <trip id="veh4" depart="4.78" departLane="best" from="-28000151#0" to="155366809" type="passenger"/>
    <trip id="veh5" depart="5.98" departLane="best" from="-155366778" to="-28006188" type="passenger"/>
    <trip id="veh6" depart="7.17" departLane="best" from="27192042#1" to="159229696#1" type="passenger"/>
    <trip id="veh7" depart="8.37" departLane="best" from="-28000153#0" to="172180955" type="passenger"/>
    <trip id="veh8" depart="9.57" departLane="best" from="4375201#1" to="-144131812#0" type="passenger"/>
    <trip id="veh9" depart="10.76" departLane="best" from="4375190#5" to="28004049" type="passenger"/>
    <trip id="veh10" depart="11.96" departLane="best" from="-332193350#2" to="-27947021" type="passenger"/>
    <trip id="veh12" depart="14.35" departLane="best" from="-165420774#1" to="-187325488#4" type="passenger"/>
    <trip id="veh13" depart="15.54" departLane="best" from="457097115#28" to="184874208#0" type="passenger"/>
    <trip id="veh14" depart="16.74" departLane="best" from="4375192#1" to="28006054" type="passenger"/>
    <trip id="veh15" depart="17.94" departLane="best" from="144131812#0" to="79716216" type="passenger"/>
    <trip id="veh16" depart="19.13" departLane="best" from="-4419017#6" to="165420760#0" type="passenger"/>
    <trip id="veh17" depart="20.33" departLane="best" from="4422125#8" to="253152096#13" type="passenger"/>
    <trip id="veh18" depart="21.52" departLane="best" from="4721530#10" to="172175269#2" type="passenger"/>
    <trip id="veh19" depart="22.72" departLane="best" from="28000371#0" to="-155367906#2" type="passenger"/>
    <trip id="veh20" depart="23.92" departLane="best" from="-28003858" to="-4422125#0" type="passenger"/>
    <trip id="veh21" depart="25.11" departLane="best" from="-168605805#0" to="-4418983#0" type="passenger"/>
    <trip id="veh22" depart="26.31" departLane="best" from="187813120" to="-4796092" type="passenger"/>
    <trip id="veh23" depart="27.50" departLane="best" from="-4375201#11" to="-28008216#0" type="passenger"/>
    <trip id="veh24" depart="28.70" departLane="best" from="-28005864" to="4796160#2" type="passenger"/>
    <trip id="veh25" depart="29.89" departLane="best" from="254846268#1" to="187468544#1" type="passenger"/>
    <trip id="veh26" depart="31.09" departLane="best" from="-27194808" to="28006028#1" type="passenger"/>
    <trip id="veh27" depart="32.29" departLane="best" from="-27194798#2" to="-4796163" type="passenger"/>
    <trip id="veh28" depart="33.48" departLane="best" from="155366787#12" to="28000372" type="passenger"/>
    <trip id="veh29" depart="34.68" departLane="best" from="4525228#1" to="281177199#11" type="passenger"/>
    <trip id="veh30" depart="35.87" departLane="best" from="-28003859" to="-155366797#4" type="passenger"/>
    <trip id="veh32" depart="38.26" departLane="best" from="-27947026#1" to="4808622#0" type="passenger"/>
    <trip id="veh33" depart="39.46" departLane="best" from="4795023" to="-4641140" type="passenger"/>
    <trip id="veh34" depart="40.66" departLane="best" from="27214364#1" to="-780214#3" type="passenger"/>
    <trip id="veh35" depart="41.85" departLane="best" from="4796150#0" to="117960883#2" type="passenger"/>
    <trip id="veh36" depart="43.05" departLane="best" from="-28005862" to="-4270616#3" type="passenger"/>
    <trip id="veh37" depart="44.24" departLane="best" from="155366792" to="-4350887#6" type="passenger"/>
    <trip id="veh38" depart="45.44" departLane="best" from="155806721" to="4795024" type="passenger"/>
    <trip id="veh39" depart="46.63" departLane="best" from="-451772657" to="-281177199#11" type="passenger"/>
    <trip id="veh40" depart="47.83" departLane="best" from="86326105#2" to="155366822#1" type="passenger"/>
    <trip id="veh41" depart="49.03" departLane="best" from="-163384340#4" to="-155367908#1" type="passenger"/>
    <trip id="veh42" depart="50.22" departLane="best" from="-170127998" to="27194805" type="passenger"/>
    <trip id="veh43" depart="51.42" departLane="best" from="4316785#0" to="-79714746#1" type="passenger"/>
    <trip id="veh44" depart="52.61" departLane="best" from="-159229388#1" to="-4796166#2" type="passenger"/>
    <trip id="veh45" depart="53.81" departLane="best" from="86326097#0" to="159229455" type="passenger"/>
    <trip id="veh47" depart="56.20" departLane="best" from="27934801#6" to="159229564" type="passenger"/>
    <trip id="veh48" depart="57.40" departLane="best" from="-28005864" to="27683107" type="passenger"/>
    <trip id="veh49" depart="58.59" departLane="best" from="-170128894" to="-79824262#1" type="passenger"/>
    <trip id="veh50" depart="59.79" departLane="best" from="-4796078#2" to="751405#3" type="passenger"/>
    <trip id="veh51" depart="60.98" departLane="best" from="4795021#1" to="-4350888" type="passenger"/>
    <trip id="veh52" depart="62.18" departLane="best" from="-79708053#1" to="-28004359#1" type="passenger"/>
    <trip id="veh53" depart="63.37" departLane="best" from="4796149" to="457097645#1" type="passenger"/>
    <trip id="veh54" depart="64.57" departLane="best" from="-28008221#0" to="27683105" type="passenger"/>
    <trip id="veh55" depart="65.77" departLane="best" from="168605805#1" to="-27947020#12" type="passenger"/>
    <trip id="veh56" depart="66.96" departLane="best" from="28156122#0" to="159229581" type="passenger"/>
    <trip id="veh57" depart="68.16" departLane="best" from="358689731#16" to="159229460" type="passenger"/>
    <trip id="veh58" depart="69.35" departLane="best" from="-113811553#2" to="-4794926#0" type="passenger"/>
    <trip id="veh59" depart="70.55" departLane="best" from="-154565324#1" to="4796146#1" type="passenger"/>
    <trip id="veh60" depart="71.75" departLane="best" from="4795263#1" to="4375201#13" type="passenger"/>
    <trip id="veh61" depart="72.94" departLane="best" from="-28022609#3" to="-159229473#0" type="passenger"/>
    <trip id="veh62" depart="74.14" departLane="best" from="4795262#2" to="4810204" type="passenger"/>
    <trip id="veh63" depart="75.33" departLane="best" from="-160278564#11" to="155366782" type="passenger"/>
    <trip id="veh64" depart="76.53" departLane="best" from="-159229453#1" to="28016095#2" type="passenger"/>
    <trip id="veh65" depart="77.72" departLane="best" from="285717959#2" to="-27929216" type="passenger"/>
    <trip id="veh66" depart="78.92" departLane="best" from="-4808622#1" to="163384340#10" type="passenger"/>
    <trip id="veh67" depart="80.12" departLane="best" from="-28005862" to="457097649" type="passenger"/>
    <trip id="veh68" depart="81.31" departLane="best" from="-4790990#3" to="-28008222#0" type="passenger"/>
    <trip id="veh69" depart="82.51" departLane="best" from="154533143#0" to="28006054" type="passenger"/>
    <trip id="veh71" depart="84.90" departLane="best" from="86326091#4" to="27930596#4" type="passenger"/>
    <trip id="veh72" depart="86.09" departLane="best" from="-4795286#2" to="156465747#0" type="passenger"/>
    <trip id="veh73" depart="87.29" departLane="best" from="-172178354#2" to="-28156120" type="passenger"/>
    <trip id="veh74" depart="88.49" departLane="best" from="-310763705#3" to="172180955" type="passenger"/>
    <trip id="veh75" depart="89.68" departLane="best" from="-28004041" to="-281177199#5" type="passenger"/>
    <trip id="veh76" depart="90.88" departLane="best" from="-159229460" to="27194807#1" type="passenger"/>
    <trip id="veh77" depart="92.07" departLane="best" from="-28003858" to="4795856" type="passenger"/>
    <trip id="veh78" depart="93.27" departLane="best" from="4641140" to="-165547068#0" type="passenger"/>
    <trip id="veh79" depart="94.46" departLane="best" from="-28004054#2" to="27947020#14" type="passenger"/>
    <trip id="veh80" depart="95.66" departLane="best" from="-27947089#0" to="-27930289" type="passenger"/>
    <trip id="veh81" depart="96.86" departLane="best" from="4810651#2" to="170129077#2" type="passenger"/>
    <trip id="veh82" depart="98.05" departLane="best" from="-4796167#2" to="28156123" type="passenger"/>
    <trip id="veh83" depart="99.25" departLane="best" from="4375192#2" to="-28005738#0" type="passenger"/>
    <trip id="veh84" depart="100.44" departLane="best" from="-168314805#0" to="-79716220" type="passenger"/>
    <trip id="veh85" depart="101.64" departLane="best" from="-4790990#3" to="146362110" type="passenger"/>
    <trip id="veh86" depart="102.83" departLane="best" from="28005994" to="27947064#0" type="passenger"/>
    <trip id="veh87" depart="104.03" departLane="best" from="8057767#0" to="-187465315" type="passenger"/>
    <trip id="veh88" depart="105.23" departLane="best" from="-457097115#0" to="-4795543#3" type="passenger"/>
    <trip id="veh89" depart="106.42" departLane="best" from="4721530#10" to="-4270618#3" type="passenger"/>
    <trip id="veh90" depart="107.62" departLane="best" from="-27930596#6" to="-85619401#7" type="passenger"/>
    <trip id="veh91" depart="108.81" departLane="best" from="-4741125#6" to="-4418985" type="passenger"/>
    <trip id="veh92" depart="110.01" departLane="best" from="-28005213#1" to="4796086" type="passenger"/>
    <trip id="veh93" depart="111.21" departLane="best" from="-4795935#2" to="4525228#0" type="passenger"/>
    <trip id="veh94" depart="112.40" departLane="best" from="155291843#0" to="-155367911" type="passenger"/>
    <trip id="veh95" depart="113.60" departLane="best" from="931013#0" to="4418983#0" type="passenger"/>
    <trip id="veh96" depart="114.79" departLane="best" from="79714748" to="4796095#2" type="passenger"/>
    <trip id="veh98" depart="117.18" departLane="best" from="-751405#1" to="-28016218#3" type="passenger"/>
    <trip id="veh99" depart="118.38" departLane="best" from="-4525210#7" to="-159229529" type="passenger"/>
    <trip id="veh100" depart="119.58" departLane="best" from="-4419017#6" to="8057769#5" type="passenger"/>
    <trip id="veh101" depart="120.77" departLane="best" from="-28005862" to="28156122#4" type="passenger"/>
    <trip id="veh102" depart="121.97" departLane="best" from="-4796080" to="-79714748" type="passenger"/>
    <trip id="veh103" depart="123.16" departLane="best" from="79707613" to="86326099#0" type="passenger"/>
    <trip id="veh104" depart="124.36" departLane="best" from="155366782" to="28005710" type="passenger"/>
    <trip id="veh105" depart="125.55" departLane="best" from="-206396664" to="-4480684#0" type="passenger"/>
    <trip id="veh106" depart="126.75" departLane="best" from="79714748" to="172178354#1" type="passenger"/>
    <trip id="veh107" depart="127.95" departLane="best" from="154533147#1" to="28008167#2" type="passenger"/>
    <trip id="veh108" depart="129.14" departLane="best" from="-79716214#0" to="4469143#3" type="passenger"/>
    <trip id="veh109" depart="130.34" departLane="best" from="-253152096#1" to="783634#1" type="passenger"/>
    <trip id="veh110" depart="131.53" departLane="best" from="-159229581" to="-28005432#0" type="passenger"/>
    <trip id="veh111" depart="132.73" departLane="best" from="160278564#3" to="27947070#1" type="passenger"/>
    <trip id="veh112" depart="133.92" departLane="best" from="-28004047#2" to="-27194806#3" type="passenger"/>
    <trip id="veh113" depart="135.12" departLane="best" from="4795935#0" to="-4270616#1" type="passenger"/>
    <trip id="veh114" depart="136.32" departLane="best" from="160278564#12" to="253152096#17" type="passenger"/>
    <trip id="veh115" depart="137.51" departLane="best" from="-4741115#5" to="172179030" type="passenger"/>
    <trip id="veh116" depart="138.71" departLane="best" from="-86326091#3" to="4796159#3" type="passenger"/>
    <trip id="veh117" depart="139.90" departLane="best" from="-27944073#0" to="28005435#3" type="passenger"/>
    <trip id="veh118" depart="141.10" departLane="best" from="-28004054#4" to="-780214#5" type="passenger"/>
    <trip id="veh119" depart="142.29" departLane="best" from="27930596#8" to="-4480687#1" type="passenger"/>
    <trip id="veh120" depart="143.49" departLane="best" from="-281177199#11" to="28008182#1" type="passenger"/>
    <trip id="veh121" depart="144.69" departLane="best" from="-159229470" to="113811611#6" type="passenger"/>
    <trip id="veh122" depart="145.88" departLane="best" from="86326117#0" to="86326105#0" type="passenger"/>
    <trip id="veh123" depart="147.08" departLane="best" from="-159229470" to="-28016218#1" type="passenger"/>
    <trip id="veh124" depart="148.27" departLane="best" from="-28005862" to="4796158" type="passenger"/>
    <trip id="veh126" depart="150.66" departLane="best" from="-4375201#1" to="-27947026#0" type="passenger"/>
    <trip id="veh127" depart="151.86" departLane="best" from="4480684#0" to="28004359#1" type="passenger"/>
    <trip id="veh129" depart="154.25" departLane="best" from="27194806#1" to="-144131812#3" type="passenger"/>
    <trip id="veh130" depart="155.45" departLane="best" from="4419017#1" to="-4480686#1" type="passenger"/>
    <trip id="veh131" depart="156.64" departLane="best" from="27927925" to="4796166#0" type="passenger"/>
    <trip id="veh132" depart="157.84" departLane="best" from="-175277924#1" to="-27192042#1" type="passenger"/>
    <trip id="veh133" depart="159.04" departLane="best" from="-170124778" to="165420774#5" type="passenger"/>
    <trip id="veh134" depart="160.23" departLane="best" from="-28006081#0" to="187325485#1" type="passenger"/>
    <trip id="veh135" depart="161.43" departLane="best" from="28005175#0" to="-28008174#0" type="passenger"/>
    <trip id="veh136" depart="162.62" departLane="best" from="187468544#0" to="-4350888" type="passenger"/>
    <trip id="veh137" depart="163.82" departLane="best" from="-780336#5" to="4795856" type="passenger"/>
    <trip id="veh138" depart="165.01" departLane="best" from="457097115#19" to="-175292105#0" type="passenger"/>
    <trip id="veh139" depart="166.21" departLane="best" from="-4790990#3" to="-4375201#7" type="passenger"/>
    <trip id="veh140" depart="167.41" departLane="best" from="-113811611#6" to="28022612" type="passenger"/>
    <trip id="veh141" depart="168.60" departLane="best" from="200573939#1" to="-4350887#2" type="passenger"/>
    <trip id="veh142" depart="169.80" departLane="best" from="28008174#2" to="163384340#9" type="passenger"/>
    <trip id="veh143" depart="170.99" departLane="best" from="-4794930" to="-146362111#1" type="passenger"/>
    <trip id="veh144" depart="172.19" departLane="best" from="-159229497" to="4721530#8" type="passenger"/>
    <trip id="veh145" depart="173.38" departLane="best" from="4796081#4" to="159404090" type="passenger"/>
    <trip id="veh146" depart="174.58" departLane="best" from="-187325495#0" to="-27929216" type="passenger"/>
    <trip id="veh148" depart="176.97" departLane="best" from="4316785#6" to="4525210#7" type="passenger"/>
    <trip id="veh149" depart="178.17" departLane="best" from="4796075" to="-28008218#0" type="passenger"/>
    <trip id="veh150" depart="179.36" departLane="best" from="-28005212" to="-200573939#1" type="passenger"/>
    <trip id="veh151" depart="180.56" departLane="best" from="358689731#5" to="4741115#4" type="passenger"/>
    <trip id="veh152" depart="181.75" departLane="best" from="-457097115#28" to="253152096#6" type="passenger"/>
    <trip id="veh153" depart="182.95" departLane="best" from="-206396664" to="4796153#0" type="passenger"/>
    <trip id="veh154" depart="184.15" departLane="best" from="4375201#14" to="4721530#11" type="passenger"/>
    <trip id="veh155" depart="185.34" departLane="best" from="-155366777#1" to="28006151#0" type="passenger"/>
    <trip id="veh156" depart="186.54" departLane="best" from="-285717962#8" to="4796153#3" type="passenger"/>
    <trip id="veh157" depart="187.73" departLane="best" from="4372116#1" to="457097115#15" type="passenger"/>
    <trip id="veh158" depart="188.93" departLane="best" from="4316771#2" to="-253152096#0" type="passenger"/>
    <trip id="veh159" depart="190.12" departLane="best" from="4794942" to="4480690" type="passenger"/>
    <trip id="veh160" depart="191.32" departLane="best" from="-28000372" to="4316784#5" type="passenger"/>
    <trip id="veh161" depart="192.52" departLane="best" from="-4796092" to="-4525228#2" type="passenger"/>
    <trip id="veh162" depart="193.71" departLane="best" from="4316785#3" to="-282948121#4" type="passenger"/>
    <trip id="veh163" depart="194.91" departLane="best" from="-155366776#2" to="-28006028#0" type="passenger"/>
    <trip id="veh164" depart="196.10" departLane="best" from="-285717959#1" to="457097115#16" type="passenger"/>
    <trip id="veh165" depart="197.30" departLane="best" from="79714744" to="-4418987#0" type="passenger"/>
    <trip id="veh166" depart="198.49" departLane="best" from="253152095#2" to="-780785#7" type="passenger"/>
    <trip id="veh167" depart="199.69" departLane="best" from="79824264" to="159229512" type="passenger"/>
    <trip id="veh168" depart="200.89" departLane="best" from="750748#2" to="-27192042#0" type="passenger"/>
    <trip id="veh169" depart="202.08" departLane="best" from="79714752" to="-28004359#1" type="passenger"/>
    <trip id="veh170" depart="203.28" departLane="best" from="79708059" to="-4372116#11" type="passenger"/>
    <trip id="veh171" depart="204.47" departLane="best" from="-170125316" to="-79824262#0" type="passenger"/>
    <trip id="veh172" depart="205.67" departLane="best" from="28005992#1" to="-4579079#3" type="passenger"/>
    <trip id="veh173" depart="206.87" departLane="best" from="167907530" to="155367906#2" type="passenger"/>
    <trip id="veh174" depart="208.06" departLane="best" from="-4419029#2" to="172174899#5" type="passenger"/>
    <trip id="veh175" depart="209.26" departLane="best" from="-28005434#3" to="28005200#1" type="passenger"/>
    <trip id="veh176" depart="210.45" departLane="best" from="-113811611#2" to="4796092" type="passenger"/>
    <trip id="veh177" depart="211.65" departLane="best" from="144270072" to="28005710" type="passenger"/>
    <trip id="veh178" depart="212.84" departLane="best" from="28008182#0" to="27947020#6" type="passenger"/>
    <trip id="veh179" depart="214.04" departLane="best" from="-4372116#3" to="-165547068#0" type="passenger"/>
    <trip id="veh180" depart="215.24" departLane="best" from="27927925" to="-4795021#0" type="passenger"/>
    <trip id="veh181" depart="216.43" departLane="best" from="-280891279" to="4422116#0" type="passenger"/>
    <trip id="veh183" depart="218.82" departLane="best" from="-28022610" to="-79707609#1" type="passenger"/>
    <trip id="veh184" depart="220.02" departLane="best" from="-457097115#0" to="-4469143#2" type="passenger"/>
    <trip id="veh185" depart="221.21" departLane="best" from="-172179594#2" to="-79714744" type="passenger"/>
    <trip id="veh186" depart="222.41" departLane="best" from="751336" to="27947116#5" type="passenger"/>
    <trip id="veh187" depart="223.61" departLane="best" from="4796080" to="206396664" type="passenger"/>
    <trip id="veh188" depart="224.80" departLane="best" from="-28016095#1" to="160278564#9" type="passenger"/>
    <trip id="veh189" depart="226.00" departLane="best" from="-113811553#1" to="-4419029#14" type="passenger"/>
    <trip id="veh191" depart="228.39" departLane="best" from="27194806#4" to="139285668#1" type="passenger"/>
    <trip id="veh192" depart="229.58" departLane="best" from="-4795935#1" to="-28016218#3" type="passenger"/>
    <trip id="veh193" depart="230.78" departLane="best" from="-4796167#3" to="4795285#0" type="passenger"/>
    <trip id="veh195" depart="233.17" departLane="best" from="-159229712" to="155367908#7" type="passenger"/>
    <trip id="veh196" depart="234.37" departLane="best" from="187465312" to="-4795265" type="passenger"/>
    <trip id="veh197" depart="235.56" departLane="best" from="4419018#0" to="28008178" type="passenger"/>
    <trip id="veh198" depart="236.76" departLane="best" from="27930615" to="-28156120" type="passenger"/>
    <trip id="veh199" depart="237.95" departLane="best" from="-27934801#2" to="-155366787#12" type="passenger"/>
    <trip id="veh200" depart="239.15" departLane="best" from="-28004957#1" to="155002222#4" type="passenger"/>
    <trip id="veh201" depart="240.35" departLane="best" from="457097644#0" to="-167121171#2" type="passenger"/>
    <trip id="veh202" depart="241.54" departLane="best" from="-4721529#1" to="27194806#4" type="passenger"/>
    <trip id="veh203" depart="242.74" departLane="best" from="-27930625#0" to="28004047#2" type="passenger"/>
    <trip id="veh204" depart="243.93" departLane="best" from="-783676" to="-358689731#9" type="passenger"/>
    <trip id="veh205" depart="245.13" departLane="best" from="27214695#0" to="-139285668#0" type="passenger"/>
    <trip id="veh206" depart="246.33" departLane="best" from="28016266" to="28022611" type="passenger"/>
    <trip id="veh207" depart="247.52" departLane="best" from="-170124444" to="-79714753#0" type="passenger"/>
    <trip id="veh208" depart="248.72" departLane="best" from="-27683089#6" to="780643" type="passenger"/>
    <trip id="veh209" depart="249.91" departLane="best" from="-83299921#2" to="-155367909#4" type="passenger"/>
    <trip id="veh210" depart="251.11" departLane="best" from="-28005200#1" to="4422116#1" type="passenger"/>
    <trip id="veh211" depart="252.30" departLane="best" from="-4796081#5" to="332193350#2" type="passenger"/>
    <trip id="veh212" depart="253.50" departLane="best" from="160278564#7" to="4908219" type="passenger"/>
    <trip id="veh213" depart="254.70" departLane="best" from="4795939" to="200574346#1" type="passenger"/>
    <trip id="veh214" depart="255.89" departLane="best" from="28005198" to="155366806#9" type="passenger"/>
    <trip id="veh215" depart="257.09" departLane="best" from="4422126#0" to="160278564#9" type="passenger"/>
    <trip id="veh216" depart="258.28" departLane="best" from="4796072" to="28006296" type="passenger"/>
    <trip id="veh218" depart="260.67" departLane="best" from="-28005199#1" to="27683092#1" type="passenger"/>
    <trip id="veh219" depart="261.87" departLane="best" from="285717959#2" to="159229382" type="passenger"/>
    <trip id="veh220" depart="263.07" departLane="best" from="175292105#1" to="-4375201#17" type="passenger"/>
    <trip id="veh221" depart="264.26" departLane="best" from="-159229561" to="-4419029#10" type="passenger"/>
    <trip id="veh222" depart="265.46" departLane="best" from="-28006055" to="-4741115#4" type="passenger"/>
    <trip id="veh223" depart="266.65" departLane="best" from="154533143#0" to="-27930623" type="passenger"/>
    <trip id="veh225" depart="269.04" departLane="best" from="-457097643#0" to="159229694" type="passenger"/>
    <trip id="veh226" depart="270.24" departLane="best" from="-4721530#11" to="-28008211#0" type="passenger"/>
    <trip id="veh227" depart="271.44" departLane="best" from="-4741123#2" to="4795856" type="passenger"/>
    <trip id="veh229" depart="273.83" departLane="best" from="4579080#2" to="28022578" type="passenger"/>
    <trip id="veh230" depart="275.02" departLane="best" from="-4419018#3" to="-144131812#0" type="passenger"/>
    <trip id="veh231" depart="276.22" departLane="best" from="-4316771#0" to="28008212#0" type="passenger"/>
    <trip id="veh232" depart="277.41" departLane="best" from="4579078#1" to="751405#1" type="passenger"/>
    <trip id="veh233" depart="278.61" departLane="best" from="-4741115#4" to="28008167#2" type="passenger"/>
    <trip id="veh234" depart="279.81" departLane="best" from="154979768" to="179633580" type="passenger"/>
    <trip id="veh235" depart="281.00" departLane="best" from="-28000153#0" to="-281177199#2" type="passenger"/>
    <trip id="veh237" depart="283.39" departLane="best" from="-310763704#1" to="27947196#1" type="passenger"/>
    <trip id="veh238" depart="284.59" departLane="best" from="-457097115#15" to="-28000153#0" type="passenger"/>
    <trip id="veh239" depart="285.78" departLane="best" from="-4796157" to="-27929216" type="passenger"/>
    <trip id="veh240" depart="286.98" departLane="best" from="175290823#0" to="-155366788" type="passenger"/>
    <trip id="veh241" depart="288.18" departLane="best" from="-4480687#0" to="170124444" type="passenger"/>
    <trip id="veh242" depart="289.37" departLane="best" from="-155366778" to="27930285#2" type="passenger"/>
    <trip id="veh243" depart="290.57" departLane="best" from="-175290823#0" to="139285664" type="passenger"/>
    <trip id="veh244" depart="291.76" departLane="best" from="-155366818" to="-4796163" type="passenger"/>
    <trip id="veh246" depart="294.16" departLane="best" from="28156119#1" to="-4796163" type="passenger"/>
    <trip id="veh248" depart="296.55" departLane="best" from="-28005228" to="-172175269#2" type="passenger"/>
    <trip id="veh249" depart="297.74" departLane="best" from="-154565324#1" to="159229581" type="passenger"/>
    <trip id="veh250" depart="298.94" departLane="best" from="931013#2" to="-4796067#3" type="passenger"/>
    <trip id="veh251" depart="300.13" departLane="best" from="27194797#0" to="28156120" type="passenger"/>
    <trip id="veh252" depart="301.33" departLane="best" from="27194798#5" to="28008213" type="passenger"/>
    <trip id="veh253" depart="302.53" departLane="best" from="783804#1" to="-28006360" type="passenger"/>
    <trip id="veh254" depart="303.72" departLane="best" from="-155291843#0" to="-27947020#1" type="passenger"/>
    <trip id="veh255" depart="304.92" departLane="best" from="-172179593" to="27947020#14" type="passenger"/>
    <trip id="veh256" depart="306.11" departLane="best" from="155366797#1" to="-281165185#0" type="passenger"/>
    <trip id="veh257" depart="307.31" departLane="best" from="-27194805" to="187325488#6" type="passenger"/>
    <trip id="veh259" depart="309.70" departLane="best" from="4419019#0" to="783808#2" type="passenger"/>
    <trip id="veh260" depart="310.90" departLane="best" from="-170124778" to="-155366787#3" type="passenger"/>
    <trip id="veh261" depart="312.09" departLane="best" from="79707615" to="-780336#3" type="passenger"/>
    <trip id="veh262" depart="313.29" departLane="best" from="28004351#0" to="-168605805#0" type="passenger"/>
    <trip id="veh264" depart="315.68" departLane="best" from="-168605805#3" to="28022616" type="passenger"/>
    <trip id="veh265" depart="316.87" departLane="best" from="457097645#0" to="175292107" type="passenger"/>
    <trip id="veh266" depart="318.07" departLane="best" from="-172178354#2" to="8057767#5" type="passenger"/>
    <trip id="veh267" depart="319.27" departLane="best" from="4270614#0" to="-4795939" type="passenger"/>
    <trip id="veh269" depart="321.66" departLane="best" from="-79819868" to="-4795546#0" type="passenger"/>
    <trip id="veh270" depart="322.85" departLane="best" from="457097643#3" to="4350887#14" type="passenger"/>
    <trip id="veh271" depart="324.05" departLane="best" from="-169624063" to="783634#1" type="passenger"/>
    <trip id="veh272" depart="325.24" departLane="best" from="187813120" to="4375190#7" type="passenger"/>
    <trip id="veh273" depart="326.44" departLane="best" from="28000909#3" to="-8010701#0" type="passenger"/>
    <trip id="veh274" depart="327.64" departLane="best" from="28006143#2" to="783808#3" type="passenger"/>
    <trip id="veh275" depart="328.83" departLane="best" from="-28006028#1" to="4270612" type="passenger"/>
    <trip id="veh276" depart="330.03" departLane="best" from="144270072" to="155366777#4" type="passenger"/>
    <trip id="veh278" depart="332.42" departLane="best" from="-28005992#0" to="4469141" type="passenger"/>
    <trip id="veh279" depart="333.62" departLane="best" from="4422126#0" to="-173253123#5" type="passenger"/>
    <trip id="veh281" depart="336.01" departLane="best" from="-4796153#0" to="200573939#0" type="passenger"/>
    <trip id="veh282" depart="337.20" departLane="best" from="-4419017#6" to="-155366791#0" type="passenger"/>
    <trip id="veh284" depart="339.59" departLane="best" from="-27947062#0" to="310763705#3" type="passenger"/>
    <trip id="veh285" depart="340.79" departLane="best" from="-353049359" to="4721530#10" type="passenger"/>
    <trip id="veh286" depart="341.99" departLane="best" from="27947116#6" to="-4375201#5" type="passenger"/>
    <trip id="veh287" depart="343.18" departLane="best" from="-139285668#1" to="4810651#2" type="passenger"/>
    <trip id="veh288" depart="344.38" departLane="best" from="-160278564#11" to="28005738#1" type="passenger"/>
    <trip id="veh289" depart="345.57" departLane="best" from="-780336#5" to="28008221#0" type="passenger"/>
    <trip id="veh291" depart="347.96" departLane="best" from="-780643" to="285717964#0" type="passenger"/>
    <trip id="veh292" depart="349.16" departLane="best" from="-165420774#3" to="-28118590#1" type="passenger"/>
    <trip id="veh293" depart="350.36" departLane="best" from="27947020#6" to="-457097115#10" type="passenger"/>
    <trip id="veh294" depart="351.55" departLane="best" from="155367908#8" to="154565320#6" type="passenger"/>
    <trip id="veh295" depart="352.75" departLane="best" from="113811611#1" to="-79714753#0" type="passenger"/>
    <trip id="veh296" depart="353.94" departLane="best" from="28008215#0" to="-4795021#0" type="passenger"/>
    <trip id="veh297" depart="355.14" departLane="best" from="28000153#0" to="-4375192#3" type="passenger"/>
    <trip id="veh298" depart="356.33" departLane="best" from="-28005214" to="-27214364#0" type="passenger"/>