<?xml version="1.0" encoding="UTF-8"?>

<!-- generated on Sat Feb 11 16:47:18 2017 by SUMO netgenerate Version 0.28.0
<?xml version="1.0" encoding="UTF-8"?>

<configuration xmlns:xsi="http://www.w3.org/2001/XMLSchema-instance" xsi:noNamespaceSchemaLocation="http://sumo.dlr.de/xsd/netgenerateConfiguration.xsd">

    <grid_network>
        <grid value="true"/>
        <grid.number value="10"/>
        <grid.length value="400"/>
    </grid_network>

    <output>
        <output-file value="MySUMOFile.net.xml"/>
    </output>

    <building_defaults>
        <default.lanenumber value="3"/>
    </building_defaults>

</configuration>
-->

<net version="0.27" xmlns:xsi="http://www.w3.org/2001/XMLSchema-instance" xsi:noNamespaceSchemaLocation="http://sumo.dlr.de/xsd/net_file.xsd">

    <location netOffset="0.00,0.00" convBoundary="0.00,0.00,3600.00,3600.00" origBoundary="0.00,0.00,3600.00,3600.00" projParameter="!"/>

    <edge id=":0/0_0" function="internal">
        <lane id=":0/0_0_0" index="0" allow="bus" disallow="private" speed="13.89" length="23.87" shape="-8.25,9.85 -7.12,1.93 -3.72,-3.72 1.93,-7.12 9.85,-8.25"/>
        <lane id=":0/0_0_1" index="1" speed="13.90" length="23.87" shape="-4.95,9.85 -4.02,3.38 -1.25,-1.25 3.38,-4.03 9.85,-4.95"/>
        <lane id=":0/0_0_2" index="2" speed="13.90" length="23.87" shape="-1.65,9.85 -0.93,4.82 1.23,1.23 4.82,-0.93 9.85,-1.65"/>
    </edge>
    <edge id=":0/0_3" function="internal">
        <lane id=":0/0_3_0" index="0" allow="bus" disallow="private" speed="13.89" length="2.69" shape="-1.65,9.85 -0.83,8.61 -0.00,8.20 0.25,8.33"/>
    </edge>
    <edge id=":0/0_8" function="internal">
        <lane id=":0/0_8_0" index="0" allow="bus" disallow="private" speed="13.89" length="2.13" shape="0.25,8.33 0.82,8.61 1.65,9.85"/>
    </edge>
    <edge id=":0/0_4" function="internal">
        <lane id=":0/0_4_0" index="0" allow="bus" disallow="private" speed="13.89" length="7.90" shape="9.85,8.25 9.15,8.35 8.65,8.65 8.35,9.15 8.25,9.85"/>
        <lane id=":0/0_4_1" index="1" speed="13.90" length="7.90" shape="9.85,4.95 7.71,5.26 6.18,6.18 5.26,7.71 4.95,9.85"/>
        <lane id=":0/0_4_2" index="2" speed="13.90" length="7.90" shape="9.85,1.65 6.26,2.16 3.70,3.70 2.16,6.26 1.65,9.85"/>
    </edge>
    <edge id=":0/0_7" function="internal">
        <lane id=":0/0_7_0" index="0" allow="bus" disallow="private" speed="13.89" length="2.20" shape="9.85,1.65 8.61,0.82 8.29,0.19"/>
    </edge>
    <edge id=":0/0_9" function="internal">
        <lane id=":0/0_9_0" index="0" allow="bus" disallow="private" speed="13.89" length="2.62" shape="8.29,0.19 8.20,-0.00 8.61,-0.83 9.85,-1.65"/>
    </edge>
    <edge id=":0/1_0" function="internal">
        <lane id=":0/1_0_0" index="0" allow="bus" disallow="private" speed="13.89" length="22.70" shape="-8.25,411.35 -8.25,388.65"/>
        <lane id=":0/1_0_1" index="1" speed="13.90" length="22.70" shape="-4.95,411.35 -4.95,388.65"/>
        <lane id=":0/1_0_2" index="2" speed="13.90" length="22.70" shape="-1.65,411.35 -1.65,388.65"/>
    </edge>
    <edge id=":0/1_3" function="internal">
        <lane id=":0/1_3_0" index="0" allow="bus" disallow="private" speed="13.89" length="8.35" shape="-1.65,411.35 -0.84,404.22 0.05,402.36"/>
        <lane id=":0/1_3_1" index="1" speed="13.90" length="8.35" shape="-1.65,411.35 -0.84,405.66 0.05,404.18"/>
    </edge>
    <edge id=":0/1_5" function="internal">
        <lane id=":0/1_5_0" index="0" allow="bus" disallow="private" speed="13.89" length="2.41" shape="-1.65,411.35 -0.83,410.11 0.00,409.70"/>
    </edge>
    <edge id=":0/1_15" function="internal">
        <lane id=":0/1_15_0" index="0" allow="bus" disallow="private" speed="13.89" length="14.45" shape="0.05,402.36 1.60,399.12 5.66,396.07 11.35,395.05"/>
    </edge>
    <edge id=":0/1_16" function="internal">
        <lane id=":0/1_16_0" index="0" allow="bus" disallow="private" speed="13.89" length="13.50" shape="0.05,404.18 1.60,401.60 5.66,399.16 11.35,398.35"/>
    </edge>
    <edge id=":0/1_17" function="internal">
        <lane id=":0/1_17_0" index="0" allow="bus" disallow="private" speed="13.89" length="2.41" shape="0.00,409.70 0.83,410.11 1.65,411.35"/>
    </edge>
    <edge id=":0/1_6" function="internal">
        <lane id=":0/1_6_0" index="0" allow="bus" disallow="private" speed="13.89" length="5.00" shape="11.35,408.25 9.99,408.44 9.02,409.02 8.44,409.99 8.25,411.35"/>
    </edge>
    <edge id=":0/1_7" function="internal">
        <lane id=":0/1_7_0" index="0" allow="bus" disallow="private" speed="13.89" length="23.63" shape="11.35,404.95 4.22,403.93 -0.87,400.88 -3.93,395.78 -4.95,388.65"/>
        <lane id=":0/1_7_1" index="1" speed="13.90" length="23.63" shape="11.35,401.65 5.66,400.84 1.60,398.40 -0.84,394.34 -1.65,388.65"/>
    </edge>
    <edge id=":0/1_9" function="internal">
        <lane id=":0/1_9_0" index="0" allow="bus" disallow="private" speed="13.89" length="4.82" shape="11.35,401.65 10.11,400.83 9.70,400.00 10.11,399.18 11.35,398.35"/>
    </edge>
    <edge id=":0/1_10" function="internal">
        <lane id=":0/1_10_0" index="0" allow="bus" disallow="private" speed="13.89" length="5.00" shape="8.25,388.65 8.44,390.01 9.03,390.98 9.99,391.56 11.35,391.75"/>
    </edge>
    <edge id=":0/1_11" function="internal">
        <lane id=":0/1_11_0" index="0" allow="bus" disallow="private" speed="13.89" length="22.70" shape="8.25,388.65 8.25,411.35"/>
        <lane id=":0/1_11_1" index="1" speed="13.90" length="22.70" shape="4.95,388.65 4.95,411.35"/>
        <lane id=":0/1_11_2" index="2" speed="13.90" length="22.70" shape="1.65,388.65 1.65,411.35"/>
    </edge>
    <edge id=":0/1_14" function="internal">
        <lane id=":0/1_14_0" index="0" allow="bus" disallow="private" speed="13.89" length="2.41" shape="1.65,388.65 0.83,389.89 0.00,390.30"/>
    </edge>
    <edge id=":0/1_18" function="internal">
        <lane id=":0/1_18_0" index="0" allow="bus" disallow="private" speed="13.89" length="2.41" shape="0.00,390.30 -0.83,389.89 -1.65,388.65"/>
    </edge>
    <edge id=":0/2_0" function="internal">
        <lane id=":0/2_0_0" index="0" allow="bus" disallow="private" speed="13.89" length="22.70" shape="-8.25,811.35 -8.25,788.65"/>
        <lane id=":0/2_0_1" index="1" speed="13.90" length="22.70" shape="-4.95,811.35 -4.95,788.65"/>
        <lane id=":0/2_0_2" index="2" speed="13.90" length="22.70" shape="-1.65,811.35 -1.65,788.65"/>
    </edge>
    <edge id=":0/2_3" function="internal">
        <lane id=":0/2_3_0" index="0" allow="bus" disallow="private" speed="13.89" length="8.35" shape="-1.65,811.35 -0.84,804.22 0.05,802.36"/>
        <lane id=":0/2_3_1" index="1" speed="13.90" length="8.35" shape="-1.65,811.35 -0.84,805.66 0.05,804.18"/>
    </edge>
    <edge id=":0/2_5" function="internal">
        <lane id=":0/2_5_0" index="0" allow="bus" disallow="private" speed="13.89" length="2.41" shape="-1.65,811.35 -0.83,810.11 0.00,809.70"/>
    </edge>
    <edge id=":0/2_15" function="internal">
        <lane id=":0/2_15_0" index="0" allow="bus" disallow="private" speed="13.89" length="14.45" shape="0.05,802.36 1.60,799.12 5.66,796.07 11.35,795.05"/>
    </edge>
    <edge id=":0/2_16" function="internal">
        <lane id=":0/2_16_0" index="0" allow="bus" disallow="private" speed="13.89" length="13.50" shape="0.05,804.18 1.60,801.60 5.66,799.16 11.35,798.35"/>
    </edge>
    <edge id=":0/2_17" function="internal">
        <lane id=":0/2_17_0" index="0" allow="bus" disallow="private" speed="13.89" length="2.41" shape="0.00,809.70 0.83,810.11 1.65,811.35"/>
    </edge>
    <edge id=":0/2_6" function="internal">
        <lane id=":0/2_6_0" index="0" allow="bus" disallow="private" speed="13.89" length="5.00" shape="11.35,808.25 9.99,808.44 9.03,809.02 8.44,809.99 8.25,811.35"/>
    </edge>
    <edge id=":0/2_7" function="internal">
        <lane id=":0/2_7_0" index="0" allow="bus" disallow="private" speed="13.89" length="23.63" shape="11.35,804.95 4.22,803.93 -0.87,800.88 -3.93,795.78 -4.95,788.65"/>
        <lane id=":0/2_7_1" index="1" speed="13.90" length="23.63" shape="11.35,801.65 5.66,800.84 1.60,798.40 -0.84,794.34 -1.65,788.65"/>
    </edge>
    <edge id=":0/2_9" function="internal">
        <lane id=":0/2_9_0" index="0" allow="bus" disallow="private" speed="13.89" length="4.82" shape="11.35,801.65 10.11,800.82 9.70,800.00 10.11,799.17 11.35,798.35"/>
    </edge>
    <edge id=":0/2_10" function="internal">
        <lane id=":0/2_10_0" index="0" allow="bus" disallow="private" speed="13.89" length="5.00" shape="8.25,788.65 8.44,790.01 9.03,790.98 9.99,791.56 11.35,791.75"/>
    </edge>
    <edge id=":0/2_11" function="internal">
        <lane id=":0/2_11_0" index="0" allow="bus" disallow="private" speed="13.89" length="22.70" shape="8.25,788.65 8.25,811.35"/>
        <lane id=":0/2_11_1" index="1" speed="13.90" length="22.70" shape="4.95,788.65 4.95,811.35"/>
        <lane id=":0/2_11_2" index="2" speed="13.90" length="22.70" shape="1.65,788.65 1.65,811.35"/>
    </edge>
    <edge id=":0/2_14" function="internal">
        <lane id=":0/2_14_0" index="0" allow="bus" disallow="private" speed="13.89" length="2.41" shape="1.65,788.65 0.83,789.89 0.00,790.30"/>
    </edge>
    <edge id=":0/2_18" function="internal">
        <lane id=":0/2_18_0" index="0" allow="bus" disallow="private" speed="13.89" length="2.41" shape="0.00,790.30 -0.83,789.89 -1.65,788.65"/>
    </edge>
    <edge id=":0/3_0" function="internal">
        <lane id=":0/3_0_0" index="0" allow="bus" disallow="private" speed="13.89" length="22.70" shape="-8.25,1211.35 -8.25,1188.65"/>
        <lane id=":0/3_0_1" index="1" speed="13.90" length="22.70" shape="-4.95,1211.35 -4.95,1188.65"/>
        <lane id=":0/3_0_2" index="2" speed="13.90" length="22.70" shape="-1.65,1211.35 -1.65,1188.65"/>
    </edge>
    <edge id=":0/3_3" function="internal">
        <lane id=":0/3_3_0" index="0" allow="bus" disallow="private" speed="13.89" length="8.35" shape="-1.65,1211.35 -0.84,1204.22 0.05,1202.36"/>
        <lane id=":0/3_3_1" index="1" speed="13.90" length="8.35" shape="-1.65,1211.35 -0.84,1205.66 0.05,1204.18"/>
    </edge>
    <edge id=":0/3_5" function="internal">
        <lane id=":0/3_5_0" index="0" allow="bus" disallow="private" speed="13.89" length="2.41" shape="-1.65,1211.35 -0.83,1210.11 0.00,1209.70"/>
    </edge>
    <edge id=":0/3_15" function="internal">
        <lane id=":0/3_15_0" index="0" allow="bus" disallow="private" speed="13.89" length="14.45" shape="0.05,1202.36 1.60,1199.12 5.66,1196.07 11.35,1195.05"/>
    </edge>
    <edge id=":0/3_16" function="internal">
        <lane id=":0/3_16_0" index="0" allow="bus" disallow="private" speed="13.89" length="13.50" shape="0.05,1204.18 1.60,1201.60 5.66,1199.16 11.35,1198.35"/>
    </edge>
    <edge id=":0/3_17" function="internal">
        <lane id=":0/3_17_0" index="0" allow="bus" disallow="private" speed="13.89" length="2.41" shape="0.00,1209.70 0.83,1210.11 1.65,1211.35"/>
    </edge>
    <edge id=":0/3_6" function="internal">
        <lane id=":0/3_6_0" index="0" allow="bus" disallow="private" speed="13.89" length="5.00" shape="11.35,1208.25 9.99,1208.44 9.03,1209.03 8.44,1209.99 8.25,1211.35"/>
    </edge>
    <edge id=":0/3_7" function="internal">
        <lane id=":0/3_7_0" index="0" allow="bus" disallow="private" speed="13.89" length="23.63" shape="11.35,1204.95 4.22,1203.93 -0.87,1200.88 -3.93,1195.78 -4.95,1188.65"/>
        <lane id=":0/3_7_1" index="1" speed="13.90" length="23.63" shape="11.35,1201.65 5.66,1200.84 1.60,1198.40 -0.84,1194.34 -1.65,1188.65"/>
    </edge>
    <edge id=":0/3_9" function="internal">
        <lane id=":0/3_9_0" index="0" allow="bus" disallow="private" speed="13.89" length="4.82" shape="11.35,1201.65 10.11,1200.82 9.70,1200.00 10.11,1199.17 11.35,1198.35"/>
    </edge>
    <edge id=":0/3_10" function="internal">
        <lane id=":0/3_10_0" index="0" allow="bus" disallow="private" speed="13.89" length="5.00" shape="8.25,1188.65 8.44,1190.01 9.03,1190.97 9.99,1191.56 11.35,1191.75"/>
    </edge>
    <edge id=":0/3_11" function="internal">
        <lane id=":0/3_11_0" index="0" allow="bus" disallow="private" speed="13.89" length="22.70" shape="8.25,1188.65 8.25,1211.35"/>
        <lane id=":0/3_11_1" index="1" speed="13.90" length="22.70" shape="4.95,1188.65 4.95,1211.35"/>
        <lane id=":0/3_11_2" index="2" speed="13.90" length="22.70" shape="1.65,1188.65 1.65,1211.35"/>
    </edge>
    <edge id=":0/3_14" function="internal">
        <lane id=":0/3_14_0" index="0" allow="bus" disallow="private" speed="13.89" length="2.41" shape="1.65,1188.65 0.83,1189.89 0.00,1190.30"/>
    </edge>
    <edge id=":0/3_18" function="internal">
        <lane id=":0/3_18_0" index="0" allow="bus" disallow="private" speed="13.89" length="2.41" shape="0.00,1190.30 -0.83,1189.89 -1.65,1188.65"/>
    </edge>
    <edge id=":0/4_0" function="internal">
        <lane id=":0/4_0_0" index="0" allow="bus" disallow="private" speed="13.89" length="22.70" shape="-8.25,1611.35 -8.25,1588.65"/>
        <lane id=":0/4_0_1" index="1" speed="13.90" length="22.70" shape="-4.95,1611.35 -4.95,1588.65"/>
        <lane id=":0/4_0_2" index="2" speed="13.90" length="22.70" shape="-1.65,1611.35 -1.65,1588.65"/>
    </edge>
    <edge id=":0/4_3" function="internal">
        <lane id=":0/4_3_0" index="0" allow="bus" disallow="private" speed="13.89" length="8.35" shape="-1.65,1611.35 -0.84,1604.22 0.05,1602.36"/>
        <lane id=":0/4_3_1" index="1" speed="13.90" length="8.35" shape="-1.65,1611.35 -0.84,1605.66 0.05,1604.18"/>
    </edge>
    <edge id=":0/4_5" function="internal">
        <lane id=":0/4_5_0" index="0" allow="bus" disallow="private" speed="13.89" length="2.41" shape="-1.65,1611.35 -0.83,1610.11 0.00,1609.70"/>
    </edge>
    <edge id=":0/4_15" function="internal">
        <lane id=":0/4_15_0" index="0" allow="bus" disallow="private" speed="13.89" length="14.45" shape="0.05,1602.36 1.60,1599.12 5.66,1596.07 11.35,1595.05"/>
    </edge>
    <edge id=":0/4_16" function="internal">
        <lane id=":0/4_16_0" index="0" allow="bus" disallow="private" speed="13.89" length="13.50" shape="0.05,1604.18 1.60,1601.60 5.66,1599.16 11.35,1598.35"/>
    </edge>
    <edge id=":0/4_17" function="internal">
        <lane id=":0/4_17_0" index="0" allow="bus" disallow="private" speed="13.89" length="2.41" shape="0.00,1609.70 0.83,1610.11 1.65,1611.35"/>
    </edge>
    <edge id=":0/4_6" function="internal">
        <lane id=":0/4_6_0" index="0" allow="bus" disallow="private" speed="13.89" length="5.00" shape="11.35,1608.25 9.99,1608.44 9.03,1609.03 8.44,1609.99 8.25,1611.35"/>
    </edge>
    <edge id=":0/4_7" function="internal">
        <lane id=":0/4_7_0" index="0" allow="bus" disallow="private" speed="13.89" length="23.63" shape="11.35,1604.95 4.22,1603.93 -0.87,1600.88 -3.93,1595.78 -4.95,1588.65"/>
        <lane id=":0/4_7_1" index="1" speed="13.90" length="23.63" shape="11.35,1601.65 5.66,1600.84 1.60,1598.40 -0.84,1594.34 -1.65,1588.65"/>
    </edge>
    <edge id=":0/4_9" function="internal">
        <lane id=":0/4_9_0" index="0" allow="bus" disallow="private" speed="13.89" length="4.82" shape="11.35,1601.65 10.11,1600.82 9.70,1600.00 10.11,1599.17 11.35,1598.35"/>
    </edge>
    <edge id=":0/4_10" function="internal">
        <lane id=":0/4_10_0" index="0" allow="bus" disallow="private" speed="13.89" length="5.00" shape="8.25,1588.65 8.44,1590.01 9.03,1590.97 9.99,1591.56 11.35,1591.75"/>
    </edge>
    <edge id=":0/4_11" function="internal">
        <lane id=":0/4_11_0" index="0" allow="bus" disallow="private" speed="13.89" length="22.70" shape="8.25,1588.65 8.25,1611.35"/>
        <lane id=":0/4_11_1" index="1" speed="13.90" length="22.70" shape="4.95,1588.65 4.95,1611.35"/>
        <lane id=":0/4_11_2" index="2" speed="13.90" length="22.70" shape="1.65,1588.65 1.65,1611.35"/>
    </edge>
    <edge id=":0/4_14" function="internal">
        <lane id=":0/4_14_0" index="0" allow="bus" disallow="private" speed="13.89" length="2.41" shape="1.65,1588.65 0.83,1589.89 0.00,1590.30"/>
    </edge>
    <edge id=":0/4_18" function="internal">
        <lane id=":0/4_18_0" index="0" allow="bus" disallow="private" speed="13.89" length="2.41" shape="0.00,1590.30 -0.83,1589.89 -1.65,1588.65"/>
    </edge>
    <edge id=":0/5_0" function="internal">
        <lane id=":0/5_0_0" index="0" allow="bus" disallow="private" speed="13.89" length="22.70" shape="-8.25,2011.35 -8.25,1988.65"/>
        <lane id=":0/5_0_1" index="1" speed="13.90" length="22.70" shape="-4.95,2011.35 -4.95,1988.65"/>
        <lane id=":0/5_0_2" index="2" speed="13.90" length="22.70" shape="-1.65,2011.35 -1.65,1988.65"/>
    </edge>
    <edge id=":0/5_3" function="internal">
        <lane id=":0/5_3_0" index="0" allow="bus" disallow="private" speed="13.89" length="8.35" shape="-1.65,2011.35 -0.84,2004.22 0.05,2002.36"/>
        <lane id=":0/5_3_1" index="1" speed="13.90" length="8.35" shape="-1.65,2011.35 -0.84,2005.66 0.05,2004.18"/>
    </edge>
    <edge id=":0/5_5" function="internal">
        <lane id=":0/5_5_0" index="0" allow="bus" disallow="private" speed="13.89" length="2.41" shape="-1.65,2011.35 -0.83,2010.11 0.00,2009.70"/>
    </edge>
    <edge id=":0/5_15" function="internal">
        <lane id=":0/5_15_0" index="0" allow="bus" disallow="private" speed="13.89" length="14.45" shape="0.05,2002.36 1.60,1999.12 5.66,1996.07 11.35,1995.05"/>
    </edge>
    <edge id=":0/5_16" function="internal">
        <lane id=":0/5_16_0" index="0" allow="bus" disallow="private" speed="13.89" length="13.50" shape="0.05,2004.18 1.60,2001.60 5.66,1999.16 11.35,1998.35"/>
    </edge>
    <edge id=":0/5_17" function="internal">
        <lane id=":0/5_17_0" index="0" allow="bus" disallow="private" speed="13.89" length="2.41" shape="0.00,2009.70 0.83,2010.11 1.65,2011.35"/>
    </edge>
    <edge id=":0/5_6" function="internal">
        <lane id=":0/5_6_0" index="0" allow="bus" disallow="private" speed="13.89" length="5.00" shape="11.35,2008.25 9.99,2008.44 9.03,2009.03 8.44,2009.99 8.25,2011.35"/>
    </edge>
    <edge id=":0/5_7" function="internal">
        <lane id=":0/5_7_0" index="0" allow="bus" disallow="private" speed="13.89" length="23.63" shape="11.35,2004.95 4.22,2003.93 -0.87,2000.88 -3.93,1995.78 -4.95,1988.65"/>
        <lane id=":0/5_7_1" index="1" speed="13.90" length="23.63" shape="11.35,2001.65 5.66,2000.84 1.60,1998.40 -0.84,1994.34 -1.65,1988.65"/>
    </edge>
    <edge id=":0/5_9" function="internal">
        <lane id=":0/5_9_0" index="0" allow="bus" disallow="private" speed="13.89" length="4.82" shape="11.35,2001.65 10.11,2000.83 9.70,2000.00 10.11,1999.17 11.35,1998.35"/>
    </edge>
    <edge id=":0/5_10" function="internal">
        <lane id=":0/5_10_0" index="0" allow="bus" disallow="private" speed="13.89" length="5.00" shape="8.25,1988.65 8.44,1990.01 9.03,1990.97 9.99,1991.56 11.35,1991.75"/>
    </edge>
    <edge id=":0/5_11" function="internal">
        <lane id=":0/5_11_0" index="0" allow="bus" disallow="private" speed="13.89" length="22.70" shape="8.25,1988.65 8.25,2011.35"/>
        <lane id=":0/5_11_1" index="1" speed="13.90" length="22.70" shape="4.95,1988.65 4.95,2011.35"/>
        <lane id=":0/5_11_2" index="2" speed="13.90" length="22.70" shape="1.65,1988.65 1.65,2011.35"/>
    </edge>
    <edge id=":0/5_14" function="internal">
        <lane id=":0/5_14_0" index="0" allow="bus" disallow="private" speed="13.89" length="2.41" shape="1.65,1988.65 0.83,1989.89 0.00,1990.30"/>
    </edge>
    <edge id=":0/5_18" function="internal">
        <lane id=":0/5_18_0" index="0" allow="bus" disallow="private" speed="13.89" length="2.41" shape="0.00,1990.30 -0.83,1989.89 -1.65,1988.65"/>
    </edge>
    <edge id=":0/6_0" function="internal">
        <lane id=":0/6_0_0" index="0" allow="bus" disallow="private" speed="13.89" length="22.70" shape="-8.25,2411.35 -8.25,2388.65"/>
        <lane id=":0/6_0_1" index="1" speed="13.90" length="22.70" shape="-4.95,2411.35 -4.95,2388.65"/>
        <lane id=":0/6_0_2" index="2" speed="13.90" length="22.70" shape="-1.65,2411.35 -1.65,2388.65"/>
    </edge>
    <edge id=":0/6_3" function="internal">
        <lane id=":0/6_3_0" index="0" allow="bus" disallow="private" speed="13.89" length="8.35" shape="-1.65,2411.35 -0.84,2404.22 0.05,2402.36"/>
        <lane id=":0/6_3_1" index="1" speed="13.90" length="8.35" shape="-1.65,2411.35 -0.84,2405.66 0.05,2404.18"/>
    </edge>
    <edge id=":0/6_5" function="internal">
        <lane id=":0/6_5_0" index="0" allow="bus" disallow="private" speed="13.89" length="2.41" shape="-1.65,2411.35 -0.83,2410.11 0.00,2409.70"/>
    </edge>
    <edge id=":0/6_15" function="internal">
        <lane id=":0/6_15_0" index="0" allow="bus" disallow="private" speed="13.89" length="14.45" shape="0.05,2402.36 1.60,2399.12 5.66,2396.07 11.35,2395.05"/>
    </edge>
    <edge id=":0/6_16" function="internal">
        <lane id=":0/6_16_0" index="0" allow="bus" disallow="private" speed="13.89" length="13.50" shape="0.05,2404.18 1.60,2401.60 5.66,2399.16 11.35,2398.35"/>
    </edge>
    <edge id=":0/6_17" function="internal">
        <lane id=":0/6_17_0" index="0" allow="bus" disallow="private" speed="13.89" length="2.41" shape="0.00,2409.70 0.83,2410.11 1.65,2411.35"/>
    </edge>
    <edge id=":0/6_6" function="internal">
        <lane id=":0/6_6_0" index="0" allow="bus" disallow="private" speed="13.89" length="5.00" shape="11.35,2408.25 9.99,2408.44 9.03,2409.03 8.44,2409.99 8.25,2411.35"/>
    </edge>
    <edge id=":0/6_7" function="internal">
        <lane id=":0/6_7_0" index="0" allow="bus" disallow="private" speed="13.89" length="23.63" shape="11.35,2404.95 4.22,2403.93 -0.87,2400.88 -3.93,2395.78 -4.95,2388.65"/>
        <lane id=":0/6_7_1" index="1" speed="13.90" length="23.63" shape="11.35,2401.65 5.66,2400.84 1.60,2398.40 -0.84,2394.34 -1.65,2388.65"/>
    </edge>
    <edge id=":0/6_9" function="internal">
        <lane id=":0/6_9_0" index="0" allow="bus" disallow="private" speed="13.89" length="4.82" shape="11.35,2401.65 10.11,2400.83 9.70,2400.00 10.11,2399.18 11.35,2398.35"/>
    </edge>
    <edge id=":0/6_10" function="internal">
        <lane id=":0/6_10_0" index="0" allow="bus" disallow="private" speed="13.89" length="5.00" shape="8.25,2388.65 8.44,2390.01 9.03,2390.97 9.99,2391.56 11.35,2391.75"/>
    </edge>
    <edge id=":0/6_11" function="internal">
        <lane id=":0/6_11_0" index="0" allow="bus" disallow="private" speed="13.89" length="22.70" shape="8.25,2388.65 8.25,2411.35"/>
        <lane id=":0/6_11_1" index="1" speed="13.90" length="22.70" shape="4.95,2388.65 4.95,2411.35"/>
        <lane id=":0/6_11_2" index="2" speed="13.90" length="22.70" shape="1.65,2388.65 1.65,2411.35"/>
    </edge>
    <edge id=":0/6_14" function="internal">
        <lane id=":0/6_14_0" index="0" allow="bus" disallow="private" speed="13.89" length="2.41" shape="1.65,2388.65 0.83,2389.89 0.00,2390.30"/>
    </edge>
    <edge id=":0/6_18" function="internal">
        <lane id=":0/6_18_0" index="0" allow="bus" disallow="private" speed="13.89" length="2.41" shape="0.00,2390.30 -0.83,2389.89 -1.65,2388.65"/>
    </edge>
    <edge id=":0/7_0" function="internal">
        <lane id=":0/7_0_0" index="0" allow="bus" disallow="private" speed="13.89" length="22.70" shape="-8.25,2811.35 -8.25,2788.65"/>
        <lane id=":0/7_0_1" index="1" speed="13.90" length="22.70" shape="-4.95,2811.35 -4.95,2788.65"/>
        <lane id=":0/7_0_2" index="2" speed="13.90" length="22.70" shape="-1.65,2811.35 -1.65,2788.65"/>
    </edge>
    <edge id=":0/7_3" function="internal">
        <lane id=":0/7_3_0" index="0" allow="bus" disallow="private" speed="13.89" length="8.35" shape="-1.65,2811.35 -0.84,2804.22 0.05,2802.36"/>
        <lane id=":0/7_3_1" index="1" speed="13.90" length="8.35" shape="-1.65,2811.35 -0.84,2805.66 0.05,2804.18"/>
    </edge>
    <edge id=":0/7_5" function="internal">
        <lane id=":0/7_5_0" index="0" allow="bus" disallow="private" speed="13.89" length="2.41" shape="-1.65,2811.35 -0.83,2810.11 0.00,2809.70"/>
    </edge>
    <edge id=":0/7_15" function="internal">
        <lane id=":0/7_15_0" index="0" allow="bus" disallow="private" speed="13.89" length="14.45" shape="0.05,2802.36 1.60,2799.12 5.66,2796.07 11.35,2795.05"/>
    </edge>
    <edge id=":0/7_16" function="internal">
        <lane id=":0/7_16_0" index="0" allow="bus" disallow="private" speed="13.89" length="13.50" shape="0.05,2804.18 1.60,2801.60 5.66,2799.16 11.35,2798.35"/>
    </edge>
    <edge id=":0/7_17" function="internal">
        <lane id=":0/7_17_0" index="0" allow="bus" disallow="private" speed="13.89" length="2.41" shape="0.00,2809.70 0.83,2810.11 1.65,2811.35"/>
    </edge>
    <edge id=":0/7_6" function="internal">
        <lane id=":0/7_6_0" index="0" allow="bus" disallow="private" speed="13.89" length="5.00" shape="11.35,2808.25 9.99,2808.44 9.03,2809.03 8.44,2809.99 8.25,2811.35"/>
    </edge>
    <edge id=":0/7_7" function="internal">
        <lane id=":0/7_7_0" index="0" allow="bus" disallow="private" speed="13.89" length="23.63" shape="11.35,2804.95 4.22,2803.93 -0.87,2800.87 -3.93,2795.78 -4.95,2788.65"/>
        <lane id=":0/7_7_1" index="1" speed="13.90" length="23.63" shape="11.35,2801.65 5.66,2800.84 1.60,2798.40 -0.84,2794.34 -1.65,2788.65"/>
    </edge>
    <edge id=":0/7_9" function="internal">
        <lane id=":0/7_9_0" index="0" allow="bus" disallow="private" speed="13.89" length="4.82" shape="11.35,2801.65 10.11,2800.83 9.70,2800.00 10.11,2799.18 11.35,2798.35"/>
    </edge>
    <edge id=":0/7_10" function="internal">
        <lane id=":0/7_10_0" index="0" allow="bus" disallow="private" speed="13.89" length="5.00" shape="8.25,2788.65 8.44,2790.01 9.03,2790.97 9.99,2791.56 11.35,2791.75"/>
    </edge>
    <edge id=":0/7_11" function="internal">
        <lane id=":0/7_11_0" index="0" allow="bus" disallow="private" speed="13.89" length="22.70" shape="8.25,2788.65 8.25,2811.35"/>
        <lane id=":0/7_11_1" index="1" speed="13.90" length="22.70" shape="4.95,2788.65 4.95,2811.35"/>
        <lane id=":0/7_11_2" index="2" speed="13.90" length="22.70" shape="1.65,2788.65 1.65,2811.35"/>
    </edge>
    <edge id=":0/7_14" function="internal">
        <lane id=":0/7_14_0" index="0" allow="bus" disallow="private" speed="13.89" length="2.41" shape="1.65,2788.65 0.83,2789.89 0.00,2790.30"/>
    </edge>
    <edge id=":0/7_18" function="internal">
        <lane id=":0/7_18_0" index="0" allow="bus" disallow="private" speed="13.89" length="2.41" shape="0.00,2790.30 -0.83,2789.89 -1.65,2788.65"/>
    </edge>
    <edge id=":0/8_0" function="internal">
        <lane id=":0/8_0_0" index="0" allow="bus" disallow="private" speed="13.89" length="22.70" shape="-8.25,3211.35 -8.25,3188.65"/>
        <lane id=":0/8_0_1" index="1" speed="13.90" length="22.70" shape="-4.95,3211.35 -4.95,3188.65"/>
        <lane id=":0/8_0_2" index="2" speed="13.90" length="22.70" shape="-1.65,3211.35 -1.65,3188.65"/>
    </edge>
    <edge id=":0/8_3" function="internal">
        <lane id=":0/8_3_0" index="0" allow="bus" disallow="private" speed="13.89" length="8.35" shape="-1.65,3211.35 -0.84,3204.22 0.05,3202.36"/>
        <lane id=":0/8_3_1" index="1" speed="13.90" length="8.35" shape="-1.65,3211.35 -0.84,3205.66 0.05,3204.18"/>
    </edge>
    <edge id=":0/8_5" function="internal">
        <lane id=":0/8_5_0" index="0" allow="bus" disallow="private" speed="13.89" length="2.41" shape="-1.65,3211.35 -0.83,3210.11 0.00,3209.70"/>
    </edge>
    <edge id=":0/8_15" function="internal">
        <lane id=":0/8_15_0" index="0" allow="bus" disallow="private" speed="13.89" length="14.45" shape="0.05,3202.36 1.60,3199.12 5.66,3196.07 11.35,3195.05"/>
    </edge>
    <edge id=":0/8_16" function="internal">
        <lane id=":0/8_16_0" index="0" allow="bus" disallow="private" speed="13.89" length="13.50" shape="0.05,3204.18 1.60,3201.60 5.66,3199.16 11.35,3198.35"/>
    </edge>
    <edge id=":0/8_17" function="internal">
        <lane id=":0/8_17_0" index="0" allow="bus" disallow="private" speed="13.89" length="2.41" shape="0.00,3209.70 0.83,3210.11 1.65,3211.35"/>
    </edge>
    <edge id=":0/8_6" function="internal">
        <lane id=":0/8_6_0" index="0" allow="bus" disallow="private" speed="13.89" length="5.00" shape="11.35,3208.25 9.99,3208.44 9.03,3209.03 8.44,3209.99 8.25,3211.35"/>
    </edge>
    <edge id=":0/8_7" function="internal">
        <lane id=":0/8_7_0" index="0" allow="bus" disallow="private" speed="13.89" length="23.63" shape="11.35,3204.95 4.22,3203.93 -0.87,3200.87 -3.93,3195.78 -4.95,3188.65"/>
        <lane id=":0/8_7_1" index="1" speed="13.90" length="23.63" shape="11.35,3201.65 5.66,3200.84 1.60,3198.40 -0.84,3194.34 -1.65,3188.65"/>
    </edge>
    <edge id=":0/8_9" function="internal">
        <lane id=":0/8_9_0" index="0" allow="bus" disallow="private" speed="13.89" length="4.82" shape="11.35,3201.65 10.11,3200.83 9.70,3200.00 10.11,3199.18 11.35,3198.35"/>
    </edge>
    <edge id=":0/8_10" function="internal">
        <lane id=":0/8_10_0" index="0" allow="bus" disallow="private" speed="13.89" length="5.00" shape="8.25,3188.65 8.44,3190.01 9.03,3190.97 9.99,3191.56 11.35,3191.75"/>
    </edge>
    <edge id=":0/8_11" function="internal">
        <lane id=":0/8_11_0" index="0" allow="bus" disallow="private" speed="13.89" length="22.70" shape="8.25,3188.65 8.25,3211.35"/>
        <lane id=":0/8_11_1" index="1" speed="13.90" length="22.70" shape="4.95,3188.65 4.95,3211.35"/>
        <lane id=":0/8_11_2" index="2" speed="13.90" length="22.70" shape="1.65,3188.65 1.65,3211.35"/>
    </edge>
    <edge id=":0/8_14" function="internal">
        <lane id=":0/8_14_0" index="0" allow="bus" disallow="private" speed="13.89" length="2.41" shape="1.65,3188.65 0.83,3189.89 0.00,3190.30"/>
    </edge>
    <edge id=":0/8_18" function="internal">