<additional>
  <vType id="privateType" maxSpeed="30" vClass="private"/>
</additional>