<?xml version="1.0" encoding="UTF-8"?>

<!-- generated on Thu Feb 16 15:05:28 2017 by SUMO duarouter Version 0.28.0
<?xml version="1.0" encoding="UTF-8"?>

<configuration xmlns:xsi="http://www.w3.org/2001/XMLSchema-instance" xsi:noNamespaceSchemaLocation="http://sumo.dlr.de/xsd/duarouterConfiguration.xsd">

    <input>
        <net-file value="grid-4.net.xml"/>
        <additional-files value="privatetype.add.xml"/>
        <trip-files value="trips.trips.xml"/>
    </input>

    <output>
        <output-file value="carroutes.rou.xml"/>
    </output>

    <processing>
        <ignore-errors value="true"/>
    </processing>

    <time>
        <begin value="0"/>
        <end value="1500.0"/>
    </time>

    <report>
        <no-warnings value="true"/>
        <no-step-log value="true"/>
    </report>

</configuration>
-->

<routes xmlns:xsi="http://www.w3.org/2001/XMLSchema-instance" xsi:noNamespaceSchemaLocation="http://sumo.dlr.de/xsd/routes_file.xsd">
    <vType id="privateType" maxSpeed="30.00" vClass="private"/>
    <vehicle id="car0" type="privateType" depart="0.00">
        <route edges="0/3to1/3 1/3to2/3 2/3to1/3 1/3to1/2 1/2to1/1 1/1to1/0"/>
    </vehicle>
    <vehicle id="car1" type="privateType" depart="1.00">
        <route edges="1/0to0/0 0/0to0/1 0/1to0/2 0/2to0/1 0/1to1/1"/>
    </vehicle>
    <vehicle id="car2" type="privateType" depart="2.00">
        <route edges="1/2to2/2 2/2to2/3 2/3to1/3"/>
    </vehicle>
    <vehicle id="car3" type="privateType" depart="3.00">
        <route edges="3/0to3/1 3/1to3/2 3/2to2/2 2/2to1/2 1/2to2/2"/>
    </vehicle>
    <vehicle id="car4" type="privateType" depart="4.00">
        <route edges="2/1to2/2 2/2to2/1 2/1to3/1 3/1to3/2 3/2to3/1"/>
    </vehicle>
    <vehicle id="car5" type="privateType" depart="5.00">
        <route edges="1/0to2/0 2/0to2/1 2/1to2/2"/>
    </vehicle>
    <vehicle id="car6" type="privateType" depart="6.00">
        <route edges="2/1to1/1 1/1to2/1"/>
    </vehicle>
    <vehicle id="car7" type="privateType" depart="7.00">
        <route edges="2/3to3/3 3/3to3/2"/>
    </vehicle>
    <vehicle id="car8" type="privateType" depart="8.00">
        <route edges="0/2to0/3 0/3to1/3 1/3to2/3 2/3to1/3"/>
    </vehicle>
    <vehicle id="car9" type="privateType" depart="9.00">
        <route edges="2/2to2/1 2/1to3/1 3/1to2/1"/>
    </vehicle>
    <vehicle id="car10" type="privateType" depart="10.00">
        <route edges="1/2to2/2 2/2to2/3"/>
    </vehicle>
    <vehicle id="car11" type="privateType" depart="11.00">
        <route edges="0/3to0/2 0/2to0/1 0/1to1/1 1/1to2/1 2/1to3/1 3/1to3/2 3/2to3/1"/>
    </vehicle>
    <vehicle id="car12" type="privateType" depart="12.00">
        <route edges="1/3to2/3 2/3to1/3 1/3to1/2 1/2to1/1 1/1to2/1"/>
    </vehicle>
    <vehicle id="car13" type="privateType" depart="13.00">
        <route edges="0/2to0/3 0/3to1/3 1/3to2/3 2/3to3/3 3/3to3/2"/>
    </vehicle>
    <vehicle id="car14" type="privateType" depart="14.00">
        <route edges="0/2to0/1 0/1to1/1 1/1to2/1 2/1to3/1 3/1to3/2 3/2to3/3 3/3to2/3"/>
    </vehicle>
    <vehicle id="car15" type="privateType" depart="15.00">
        <route edges="3/2to2/2 2/2to2/1 2/1to3/1 3/1to2/1"/>
    </vehicle>
    <vehicle id="car16" type="privateType" depart="16.00">
        <route edges="1/0to2/0 2/0to2/1 2/1to2/2 2/2to2/3 2/3to1/3 1/3to2/3 2/3to3/3"/>
    </vehicle>
    <vehicle id="car17" type="privateType" depart="17.00">
        <route edges="0/2to0/3 0/3to1/3 1/3to2/3"/>
    </vehicle>
    <vehicle id="car18" type="privateType" depart="18.00">
        <route edges="1/0to1/1 1/1to1/2 1/2to1/3 1/3to0/3 0/3to1/3 1/3to2/3 2/3to3/3"/>
    </vehicle>
    <vehicle id="car19" type="privateType" depart="19.00">
        <route edges="2/0to2/1 2/1to2/2 2/2to1/2 1/2to0/2 0/2to0/1 0/1to0/2 0/2to0/3"/>
    </vehicle>
    <vehicle id="car20" type="privateType" depart="20.00">
        <route edges="1/2to2/2 2/2to1/2 1/2to0/2 0/2to0/1"/>
    </vehicle>
    <vehicle id="car21" type="privateType" depart="21.00">
        <route edges="2/1to3/1 3/1to2/1 2/1to1/1 1/1to0/1 0/1to0/0"/>
    </vehicle>
    <vehicle id="car22" type="privateType" depart="22.00">
        <route edges="0/2to0/1 0/1to1/1 1/1to0/1"/>
    </vehicle>
    <vehicle id="car23" type="privateType" depart="23.00">
        <route edges="0/1to0/2 0/2to0/1 0/1to1/1 1/1to1/2 1/2to1/1"/>
    </vehicle>
    <vehicle id="car24" type="privateType" depart="24.00">
        <route edges="2/3to1/3 1/3to1/2 1/2to1/1 1/1to2/1 2/1to3/1 3/1to2/1"/>
    </vehicle>
    <vehicle id="car25" type="privateType" depart="25.00">
        <route edges="2/2to1/2 1/2to0/2 0/2to1/2 1/2to1/3"/>
    </vehicle>
    <vehicle id="car26" type="privateType" depart="26.00">
        <route edges="0/3to1/3 1/3to2/3 2/3to3/3 3/3to2/3"/>
    </vehicle>
    <vehicle id="car27" type="privateType" depart="27.00">
        <route edges="1/2to2/2 2/2to1/2 1/2to1/1 1/1to1/0 1/0to2/0 2/0to1/0"/>
    </vehicle>
    <vehicle id="car28" type="privateType" depart="28.00">
        <route edges="0/3to1/3 1/3to2/3 2/3to3/3 3/3to3/2"/>
    </vehicle>
    <vehicle id="car29" type="privateType" depart="29.00">
        <route edges="0/1to1/1 1/1to2/1 2/1to3/1 3/1to3/2 3/2to3/3"/>
    </vehicle>
    <vehicle id="car30" type="privateType" depart="30.00">
        <route edges="1/0to2/0 2/0to2/1 2/1to1/1 1/1to0/1 0/1to1/1"/>
    </vehicle>
    <vehicle id="car31" type="privateType" depart="31.00">
        <route edges="1/0to0/0 0/0to0/1 0/1to0/2 0/2to0/3 0/3to1/3 1/3to2/3 2/3to3/3"/>
    </vehicle>
    <vehicle id="car32" type="privateType" depart="32.00">
        <route edges="1/0to0/0 0/0to1/0 1/0to2/0 2/0to3/0 3/0to2/0"/>
    </vehicle>
    <vehicle id="car33" type="privateType" depart="33.00">
        <route edges="0/3to0/2 0/2to1/2 1/2to0/2"/>
    </vehicle>
    <vehicle id="car34" type="privateType" depart="34.00">
        <route edges="1/3to1/2 1/2to2/2 2/2to3/2 3/2to3/3 3/3to2/3"/>
    </vehicle>
    <vehicle id="car35" type="privateType" depart="35.00">
        <route edges="2/0to2/1 2/1to1/1 1/1to2/1 2/1to3/1 3/1to3/2"/>
    </vehicle>
    <vehicle id="car36" type="privateType" depart="36.00">
        <route edges="1/3to2/3 2/3to3/3 3/3to2/3 2/3to2/2 2/2to2/1"/>
    </vehicle>
    <vehicle id="car37" type="privateType" depart="37.00">
        <route edges="1/3to1/2 1/2to1/1 1/1to1/0 1/0to2/0 2/0to3/0 3/0to3/1"/>
    </vehicle>
    <vehicle id="car38" type="privateType" depart="38.00">
        <route edges="3/1to3/2 3/2to2/2 2/2to1/2 1/2to0/2"/>
    </vehicle>
    <vehicle id="car39" type="privateType" depart="39.00">
        <route edges="1/3to2/3 2/3to1/3 1/3to1/2 1/2to1/1 1/1to1/2 1/2to0/2"/>
    </vehicle>
    <vehicle id="car40" type="privateType" depart="40.00">
        <route edges="2/2to3/2 3/2to3/3 3/3to2/3"/>
    </vehicle>
    <vehicle id="car41" type="privateType" depart="41.00">
        <route edges="2/1to1/1 1/1to1/0 1/0to2/0 2/0to2/1"/>
    </vehicle>
    <vehicle id="car42" type="privateType" depart="42.00">
        <route edges="0/1to1/1 1/1to1/2 1/2to1/1 1/1to1/0 1/0to2/0 2/0to1/0"/>
    </vehicle>
    <vehicle id="car43" type="privateType" depart="43.00">
        <route edges="1/1to0/1 0/1to1/1"/>
    </vehicle>
    <vehicle id="car44" type="privateType" depart="44.00">
        <route edges="1/1to1/2 1/2to1/1 1/1to1/0 1/0to2/0 2/0to3/0 3/0to3/1"/>
    </vehicle>
    <vehicle id="car45" type="privateType" depart="45.00">
        <route edges="2/2to1/2 1/2to0/2 0/2to0/1 0/1to0/2 0/2to0/3"/>
    </vehicle>
    <vehicle id="car46" type="privateType" depart="46.00">
        <route edges="2/3to1/3 1/3to1/2"/>
    </vehicle>
    <vehicle id="car47" type="privateType" depart="47.00">
        <route edges="1/1to1/0 1/0to1/1 1/1to1/2"/>
    </vehicle>
    <vehicle id="car48" type="privateType" depart="48.00">
        <route edges="2/0to2/1 2/1to2/2 2/2to2/3 2/3to1/3 1/3to1/2"/>
    </vehicle>
    <vehicle id="car49" type="privateType" depart="49.00">
        <route edges="1/0to1/1 1/1to1/2 1/2to0/2 0/2to1/2 1/2to2/2 2/2to3/2 3/2to3/3"/>
    </vehicle>
    <vehicle id="car50" type="privateType" depart="50.00">
        <route edges="0/0to1/0 1/0to1/1 1/1to0/1"/>
    </vehicle>
    <vehicle id="car51" type="privateType" depart="51.00">
        <route edges="0/1to0/2"/>
    </vehicle>
    <vehicle id="car52" type="privateType" depart="52.00">
        <route edges="1/0to1/1 1/1to1/2 1/2to1/3 1/3to0/3"/>
    </vehicle>
    <vehicle id="car53" type="privateType" depart="53.00">
        <route edges="0/0to1/0 1/0to1/1 1/1to1/2 1/2to1/3 1/3to0/3"/>
    </vehicle>
    <vehicle id="car54" type="privateType" depart="54.00">
        <route edges="0/2to0/3 0/3to0/2 0/2to0/1 0/1to1/1 1/1to2/1 2/1to3/1 3/1to2/1"/>
    </vehicle>
    <vehicle id="car55" type="privateType" depart="55.00">
        <route edges="0/1to1/1 1/1to2/1 2/1to2/2 2/2to1/2"/>
    </vehicle>
    <vehicle id="car56" type="privateType" depart="56.00">
        <route edges="2/3to2/2 2/2to2/1 2/1to2/2 2/2to1/2 1/2to0/2 0/2to0/1 0/1to0/2"/>
    </vehicle>
    <vehicle id="car57" type="privateType" depart="57.00">
        <route edges="1/0to1/1 1/1to1/2 1/2to0/2 0/2to1/2 1/2to2/2 2/2to2/3"/>
    </vehicle>
    <vehicle id="car58" type="privateType" depart="58.00">
        <route edges="1/3to1/2 1/2to1/1 1/1to2/1 2/1to3/1 3/1to3/2 3/2to3/1"/>
    </vehicle>
    <vehicle id="car59" type="privateType" depart="59.00">
        <route edges="0/3to0/2 0/2to0/1 0/1to1/1 1/1to2/1 2/1to2/2"/>
    </vehicle>
    <vehicle id="car60" type="privateType" depart="60.00">
        <route edges="3/0to2/0 2/0to1/0 1/0to2/0 2/0to2/1 2/1to2/2 2/2to2/3"/>
    </vehicle>
    <vehicle id="car61" type="privateType" depart="61.00">
        <route edges="0/3to1/3 1/3to2/3 2/3to3/3 3/3to3/2 3/2to3/1 3/1to3/0 3/0to2/0"/>
    </vehicle>
    <vehicle id="car62" type="privateType" depart="62.00">
        <route edges="1/2to1/1 1/1to2/1 2/1to2/2 2/2to2/3 2/3to1/3"/>
    </vehicle>
    <vehicle id="car63" type="privateType" depart="63.00">
        <route edges="0/1to0/2 0/2to0/1 0/1to1/1 1/1to2/1 2/1to2/2 2/2to1/2"/>
    </vehicle>
    <vehicle id="car64" type="privateType" depart="64.00">
        <route edges="2/0to2/1 2/1to1/1 1/1to2/1 2/1to3/1 3/1to3/2"/>
    </vehicle>
    <vehicle id="car65" type="privateType" depart="65.00">
        <route edges="1/2to1/1 1/1to2/1 2/1to2/2 2/2to2/1"/>
    </vehicle>
    <vehicle id="car66" type="privateType" depart="66.00">
        <route edges="2/1to2/2 2/2to1/2 1/2to2/2"/>
    </vehicle>
    <vehicle id="car67" type="privateType" depart="67.00">
        <route edges="1/3to2/3 2/3to1/3 1/3to1/2"/>
    </vehicle>
    <vehicle id="car68" type="privateType" depart="68.00">
        <route edges="2/1to2/2 2/2to1/2 1/2to1/1"/>
    </vehicle>
    <vehicle id="car69" type="privateType" depart="69.00">
        <route edges="0/1to0/0 0/0to1/0 1/0to2/0 2/0to2/1 2/1to1/1"/>
    </vehicle>
    <vehicle id="car70" type="privateType" depart="70.00">
        <route edges="3/1to3/2 3/2to3/3 3/3to2/3 2/3to2/2"/>
    </vehicle>
    <vehicle id="car71" type="privateType" depart="71.00">
        <route edges="0/2to0/3 0/3to0/2 0/2to1/2 1/2to1/3 1/3to1/2"/>
    </vehicle>
    <vehicle id="car72" type="privateType" depart="72.00">
        <route edges="3/1to3/0 3/0to2/0"/>
    </vehicle>
    <vehicle id="car73" type="privateType" depart="73.00">
        <route edges="0/1to0/0 0/0to1/0 1/0to2/0 2/0to2/1 2/1to2/2 2/2to1/2"/>
    </vehicle>
    <vehicle id="car74" type="privateType" depart="74.00">
        <route edges="0/1to0/0 0/0to0/1 0/1to0/2 0/2to0/3 0/3to1/3 1/3to2/3 2/3to3/3 3/3to2/3"/>
    </vehicle>
    <vehicle id="car75" type="privateType" depart="75.00">
        <route edges="3/3to3/2 3/2to3/1 3/1to3/2 3/2to2/2 2/2to3/2"/>
    </vehicle>
    <vehicle id="car76" type="privateType" depart="76.00">
        <route edges="1/3to0/3 0/3to0/2"/>
    </vehicle>
    <vehicle id="car77" type="privateType" depart="77.00">
        <route edges="0/2to0/1 0/1to1/1 1/1to1/2 1/2to0/2 0/2to1/2 1/2to2/2"/>
    </vehicle>
    <vehicle id="car78" type="privateType" depart="78.00">
        <route edges="2/1to1/1 1/1to0/1"/>
    </vehicle>
    <vehicle id="car79" type="privateType" depart="79.00">
        <route edges="2/2to1/2 1/2to1/1 1/1to2/1 2/1to1/1"/>
    </vehicle>
    <vehicle id="car80" type="privateType" depart="80.00">
        <route edges="3/2to3/3 3/3to2/3 2/3to1/3 1/3to0/3 0/3to0/2 0/2to0/1 0/1to0/0 0/0to0/1"/>
    </vehicle>
    <vehicle id="car81" type="privateType" depart="81.00">
        <route edges="2/3to1/3 1/3to0/3 0/3to0/2 0/2to0/1"/>
    </vehicle>
    <vehicle id="car82" type="privateType" depart="82.00">
        <route edges="0/3to0/2 0/2to1/2 1/2to2/2 2/2to3/2 3/2to3/3 3/3to2/3"/>
    </vehicle>
    <vehicle id="car83" type="privateType" depart="83.00">
        <route edges="2/3to3/3 3/3to2/3 2/3to1/3 1/3to1/2 1/2to1/1 1/1to1/2"/>
    </vehicle>
    <vehicle id="car84" type="privateType" depart="84.00">
        <route edges="1/0to1/1 1/1to0/1 0/1to1/1 1/1to2/1 2/1to2/2 2/2to2/1"/>
    </vehicle>
    <vehicle id="car85" type="privateType" depart="85.00">
        <route edges="3/2to2/2 2/2to1/2 1/2to1/1 1/1to2/1 2/1to1/1"/>
    </vehicle>
    <vehicle id="car86" type="privateType" depart="86.00">
        <route edges="1/2to1/3 1/3to0/3 0/3to0/2 0/2to1/2"/>
    </vehicle>
    <vehicle id="car87" type="privateType" depart="87.00">
        <route edges="2/3to1/3 1/3to1/2 1/2to1/1 1/1to1/0"/>
    </vehicle>
    <vehicle id="car88" type="privateType" depart="88.00">
        <route edges="1/1to1/0"/>
    </vehicle>
    <vehicle id="car89" type="privateType" depart="89.00">
        <route edges="2/2to2/3 2/3to2/2 2/2to2/1 2/1to2/0 2/0to2/1"/>
    </vehicle>
    <vehicle id="car90" type="privateType" depart="90.00">
        <route edges="0/3to0/2 0/2to1/2 1/2to0/2"/>
    </vehicle>
    <vehicle id="car91" type="privateType" depart="91.00">
        <route edges="3/2to3/3 3/3to2/3 2/3to2/2 2/2to2/1 2/1to3/1"/>
    </vehicle>
    <vehicle id="car92" type="privateType" depart="92.00">
        <route edges="1/2to1/1 1/1to1/0 1/0to1/1 1/1to0/1"/>
    </vehicle>
    <vehicle id="car93" type="privateType" depart="93.00">
        <route edges="0/1to0/0 0/0to1/0 1/0to2/0 2/0to3/0 3/0to3/1 3/1to3/2"/>
    </vehicle>
    <vehicle id="car94" type="privateType" depart="94.00">
        <route edges="1/3to1/2 1/2to1/1 1/1to2/1"/>
    </vehicle>
    <vehicle id="car95" type="privateType" depart="95.00">
        <route edges="3/3to2/3 2/3to1/3 1/3to1/2 1/2to1/1 1/1to1/0 1/0to2/0 2/0to1/0 1/0to0/0"/>
    </vehicle>
    <vehicle id="car96" type="privateType" depart="96.00">
        <route edges="2/0to3/0 3/0to3/1 3/1to3/2 3/2to2/2 2/2to2/1"/>
    </vehicle>
    <vehicle id="car97" type="privateType" depart="97.00">
        <route edges="2/2to2/1 2/1to2/2 2/2to1/2 1/2to0/2 0/2to0/1 0/1to0/2"/>
    </vehicle>
    <vehicle id="car98" type="privateType" depart="98.00">
        <route edges="3/3to2/3 2/3to1/3 1/3to0/3 0/3to0/2 0/2to0/1 0/1to0/2"/>
    </vehicle>
    <vehicle id="car99" type="privateType" depart="99.00">
        <route edges="0/1to0/2 0/2to0/1 0/1to1/1 1/1to1/2"/>
    </vehicle>
    <vehicle id="car100" type="privateType" depart="100.00">
        <route edges="2/0to2/1 2/1to2/2 2/2to2/1"/>
    </vehicle>
    <vehicle id="car101" type="privateType" depart="101.00">
        <route edges="2/3to2/2 2/2to2/1 2/1to2/2 2/2to1/2 1/2to0/2 0/2to0/1 0/1to1/1"/>
    </vehicle>
    <vehicle id="car102" type="privateType" depart="102.00">
        <route edges="0/3to1/3 1/3to2/3 2/3to1/3 1/3to1/2 1/2to1/1 1/1to2/1"/>
    </vehicle>
    <vehicle id="car103" type="privateType" depart="103.00">
        <route edges="2/3to3/3 3/3to2/3 2/3to1/3 1/3to0/3 0/3to0/2 0/2to0/1 0/1to0/2"/>
    </vehicle>
    <vehicle id="car104" type="privateType" depart="104.00">
        <route edges="3/3to2/3 2/3to2/2 2/2to2/1 2/1to3/1"/>
    </vehicle>
    <vehicle id="car105" type="privateType" depart="105.00">
        <route edges="1/2to0/2 0/2to1/2"/>
    </vehicle>
    <vehicle id="car106" type="privateType" depart="106.00">
        <route edges="0/2to0/3 0/3to0/2 0/2to1/2 1/2to2/2 2/2to3/2 3/2to3/3"/>
    </vehicle>
    <vehicle id="car107" type="privateType" depart="107.00">
        <route edges="3/3to3/2 3/2to3/3 3/3to2/3 2/3to1/3 1/3to1/2 1/2to1/3"/>
    </vehicle>
    <vehicle id="car108" type="privateType" depart="108.00">
        <route edges="0/2to0/3 0/3to0/2 0/2to0/1 0/1to1/1 1/1to2/1 2/1to3/1"/>
    </vehicle>
    <vehicle id="car109" type="privateType" depart="109.00">
        <route edges="1/1to2/1 2/1to2/2 2/2to1/2 1/2to1/1"/>
    </vehicle>
    <vehicle id="car110" type="privateType" depart="110.00">
        <route edges="2/0to3/0 3/0to3/1 3/1to3/2 3/2to2/2 2/2to1/2 1/2to0/2 0/2to1/2 1/2to1/3"/>
    </vehicle>
    <vehicle id="car111" type="privateType" depart="111.00">
        <route edges="3/0to2/0 2/0to1/0 1/0to2/0 2/0to2/1 2/1to2/2 2/2to1/2 1/2to0/2 0/2to1/2"/>
    </vehicle>
    <vehicle id="car112" type="privateType" depart="112.00">
        <route edges="1/0to0/0 0/0to1/0 1/0to1/1 1/1to1/2 1/2to0/2 0/2to1/2 1/2to2/2"/>
    </vehicle>
    <vehicle id="car113" type="privateType" depart="113.00">
        <route edges="2/1to3/1 3/1to3/2 3/2to3/3 3/3to2/3"/>
    </vehicle>
    <vehicle id="car114" type="privateType" depart="114.00">
        <route edges="1/2to1/1 1/1to1/0 1/0to2/0 2/0to2/1 2/1to2/0"/>
    </vehicle>
    <vehicle id="car115" type="privateType" depart="115.00">
        <route edges="1/3to0/3 0/3to0/2 0/2to1/2 1/2to2/2"/>
    </vehicle>
    <vehicle id="car116" type="privateType" depart="116.00">
        <route edges="0/0to0/1 0/1to0/0 0/0to1/0 1/0to2/0 2/0to2/1 2/1to2/0"/>
    </vehicle>
    <vehicle id="car117" type="privateType" depart="117.00">
        <route edges="1/1to2/1 2/1to3/1 3/1to3/2 3/2to2/2"/>
    </vehicle>
    <vehicle id="car118" type="privateType" depart="118.00">
        <route edges="2/1to3/1"/>
    </vehicle>
    <vehicle id="car119" type="privateType" depart="119.00">
        <route edges="2/3to3/3 3/3to2/3"/>
    </vehicle>
    <vehicle id="car120" type="privateType" depart="120.00">
        <route edges="2/1to2/0 2/0to2/1 2/1to1/1 1/1to0/1 0/1to0/0"/>
    </vehicle>
    <vehicle id="car121" type="privateType" depart="121.00">
        <route edges="1/0to1/1 1/1to1/2 1/2to1/1"/>
    </vehicle>
    <vehicle id="car122" type="privateType" depart="122.00">
        <route edges="1/3to2/3 2/3to1/3 1/3to1/2 1/2to1/1 1/1to1/0"/>
    </vehicle>
    <vehicle id="car123" type="privateType" depart="123.00">
        <route edges="2/0to1/0 1/0to2/0 2/0to3/0 3/0to3/1 3/1to3/2"/>
    </vehicle>
    <vehicle id="car124" type="privateType" depart="124.00">
        <route edges="0/2to1/2 1/2to0/2 0/2to0/1 0/1to1/1 1/1to2/1 2/1to1/1"/>
    </vehicle>
    <vehicle id="car125" type="privateType" depart="125.00">
        <route edges="0/3to0/2 0/2to1/2 1/2to1/3"/>
    </vehicle>
    <vehicle id="car126" type="privateType" depart="126.00">
        <route edges="2/1to2/0 2/0to3/0 3/0to3/1 3/1to3/2"/>
    </vehicle>
    <vehicle id="car127" type="privateType" depart="127.00">
        <route edges="3/2to3/3 3/3to2/3 2/3to1/3 1/3to1/2 1/2to1/1"/>
    </vehicle>
    <vehicle id="car128" type="privateType" depart="128.00">
        <route edges="1/3to1/2 1/2to1/1 1/1to2/1 2/1to2/2 2/2to2/1"/>
    </vehicle>
    <vehicle id="car129" type="privateType" depart="129.00">
        <route edges="1/1to1/2 1/2to1/1 1/1to1/0 1/0to2/0 2/0to3/0 3/0to3/1"/>
    </vehicle>
    <vehicle id="car130" type="privateType" depart="130.00">
        <route edges="3/2to3/1 3/1to3/2 3/2to2/2 2/2to1/2 1/2to0/2 0/2to0/1"/>
    </vehicle>
    <vehicle id="car131" type="privateType" depart="131.00">
        <route edges="1/3to1/2 1/2to1/1 1/1to2/1 2/1to3/1 3/1to3/2"/>
    </vehicle>
    <vehicle id="car132" type="privateType" depart="132.00">
        <route edges="2/2to3/2 3/2to2/2 2/2to2/1 2/1to3/1 3/1to3/2"/>
    </vehicle>
    <vehicle id="car133" type="privateType" depart="133.00">
        <route edges="1/2to1/3 1/3to0/3 0/3to1/3 1/3to2/3 2/3to3/3"/>
    </vehicle>
    <vehicle id="car134" type="privateType" depart="134.00">
        <route edges="3/1to3/2 3/2to2/2 2/2to1/2 1/2to1/1 1/1to1/0 1/0to1/1"/>
    </vehicle>
    <vehicle id="car135" type="privateType" depart="135.00">
        <route edges="3/3to3/2 3/2to3/3"/>
    </vehicle>
    <vehicle id="car136" type="privateType" depart="136.00">
        <route edges="1/3to1/2 1/2to1/3 1/3to0/3 0/3to1/3"/>
    </vehicle>
    <vehicle id="car137" type="privateType" depart="137.00">
        <route edges="3/0to3/1 3/1to3/2 3/2to3/3 3/3to2/3 2/3to3/3"/>
    </vehicle>
    <vehicle id="car138" type="privateType" depart="138.00">
        <route edges="3/0to2/0 2/0to3/0 3/0to3/1 3/1to3/0"/>
    </vehicle>
    <vehicle id="car139" type="privateType" depart="139.00">
        <route edges="3/1to3/2 3/2to3/1 3/1to3/0 3/0to2/0"/>
    </vehicle>
    <vehicle id="car140" type="privateType" depart="140.00">
        <route edges="1/0to0/0 0/0to0/1 0/1to0/2 0/2to0/3 0/3to1/3"/>
    </vehicle>
    <vehicle id="car141" type="privateType" depart="141.00">
        <route edges="0/3to1/3 1/3to0/3 0/3to0/2 0/2to0/1 0/1to0/0"/>
    </vehicle>
    <vehicle id="car142" type="privateType" depart="142.00">
        <route edges="1/3to2/3 2/3to1/3 1/3to1/2 1/2to1/1 1/1to1/0 1/0to2/0 2/0to1/0"/>
    </vehicle>
    <vehicle id="car143" type="privateType" depart="143.00">
        <route edges="1/0to2/0 2/0to2/1 2/1to1/1 1/1to0/1 0/1to0/0"/>
    </vehicle>
    <vehicle id="car144" type="privateType" depart="144.00">
        <route edges="1/2to2/2 2/2to1/2 1/2to1/1 1/1to1/0 1/0to2/0"/>
    </vehicle>
    <vehicle id="car145" type="privateType" depart="145.00">
        <route edges="3/1to3/2 3/2to2/2 2/2to1/2 1/2to1/1 1/1to2/1"/>
    </vehicle>
    <vehicle id="car146" type="privateType" depart="146.00">
        <route edges="1/1to1/2 1/2to1/1 1/1to2/1 2/1to3/1 3/1to3/2 3/2to3/1"/>
    </vehicle>
    <vehicle id="car147" type="privateType" depart="147.00">
        <route edges="3/1to3/2"/>
    </vehicle>
    <vehicle id="car148" type="privateType" depart="148.00">
        <route edges="0/0to0/1 0/1to0/2 0/2to0/1 0/1to1/1 1/1to2/1 2/1to2/2"/>
    </vehicle>
    <vehicle id="car149" type="privateType" depart="149.00">
        <route edges="2/1to2/0 2/0to2/1 2/1to2/2 2/2to1/2 1/2to0/2 0/2to0/1"/>
    </vehicle>
    <vehicle id="car150" type="privateType" depart="150.00">
        <route edges="1/0to2/0 2/0to2/1"/>
    </vehicle>
    <vehicle id="car151" type="privateType" depart="151.00">
        <route edges="2/1to3/1 3/1to3/2 3/2to3/1 3/1to3/0"/>
    </vehicle>
    <vehicle id="car152" type="privateType" depart="152.00">
        <route edges="3/2to3/1 3/1to3/2 3/2to2/2 2/2to1/2 1/2to0/2 0/2to1/2 1/2to1/3"/>
    </vehicle>
    <vehicle id="car153" type="privateType" depart="153.00">
        <route edges="0/3to1/3 1/3to2/3 2/3to1/3 1/3to1/2 1/2to1/1 1/1to2/1 2/1to3/1"/>
    </vehicle>
    <vehicle id="car154" type="privateType" depart="154.00">
        <route edges="3/2to2/2 2/2to1/2 1/2to0/2 0/2to0/1 0/1to0/2 0/2to0/3 0/3to0/2"/>
    </vehicle>
    <vehicle id="car155" type="privateType" depart="155.00">
        <route edges="2/2to2/1 2/1to2/0 2/0to3/0"/>
    </vehicle>
    <vehicle id="car156" type="privateType" depart="156.00">
        <route edges="3/0to2/0 2/0to1/0 1/0to0/0 0/0to1/0 1/0to1/1 1/1to1/2"/>
    </vehicle>
    <vehicle id="car157" type="privateType" depart="157.00">
        <route edges="2/0to3/0 3/0to3/1 3/1to3/2 3/2to3/3 3/3to2/3 2/3to1/3 1/3to1/2"/>
    </vehicle>
    <vehicle id="car158" type="privateType" depart="158.00">
        <route edges="2/3to2/2 2/2to2/1 2/1to2/0 2/0to3/0 3/0to3/1"/>
    </vehicle>
    <vehicle id="car159" type="privateType" depart="159.00">
        <route edges="3/3to2/3 2/3to2/2 2/2to3/2 3/2to2/2"/>
    </vehicle>
    <vehicle id="car160" type="privateType" depart="160.00">
        <route edges="2/2to2/3 2/3to1/3 1/3to0/3 0/3to1/3"/>
    </vehicle>
    <vehicle id="car161" type="privateType" depart="161.00">
        <route edges="1/2to1/1 1/1to2/1 2/1to3/1 3/1to3/2 3/2to3/3"/>
    </vehicle>
    <vehicle id="car162" type="privateType" depart="162.00">
        <route edges="2/3to2/2 2/2to3/2 3/2to3/3 3/3to3/2"/>
    </vehicle>
    <vehicle id="car163" type="privateType" depart="163.00">
        <route edges="1/1to1/0 1/0to2/0 2/0to2/1"/>
    </vehicle>
    <vehicle id="car164" type="privateType" depart="164.00">
        <route edges="2/1to1/1 1/1to2/1 2/1to3/1 3/1to3/2"/>
    </vehicle>
    <vehicle id="car165" type="privateType" depart="165.00">
        <route edges="0/3to1/3 1/3to2/3 2/3to1/3 1/3to1/2 1/2to2/2 2/2to1/2"/>
    </vehicle>
    <vehicle id="car166" type="privateType" depart="166.00">
        <route edges="2/0to3/0 3/0to3/1 3/1to2/1 2/1to1/1 1/1to2/1"/>
    </vehicle>
    <vehicle id="car167" type="privateType" depart="167.00">
        <route edges="0/2to0/1 0/1to1/1 1/1to2/1 2/1to3/1 3/1to3/2 3/2to3/3"/>
    </vehicle>
    <vehicle id="car168" type="privateType" depart="168.00">
        <route edges="1/1to0/1 0/1to1/1 1/1to2/1 2/1to3/1 3/1to2/1"/>
    </vehicle>
    <vehicle id="car169" type="privateType" depart="169.00">
        <route edges="2/0to1/0 1/0to0/0"/>
    </vehicle>
    <vehicle id="car170" type="privateType" depart="170.00">
        <route edges="3/3to2/3 2/3to1/3 1/3to1/2 1/2to1/1 1/1to1/0 1/0to1/1 1/1to0/1"/>
    </vehicle>
    <vehicle id="car171" type="privateType" depart="171.00">
        <route edges="2/2to2/1 2/1to2/2 2/2to1/2 1/2to0/2 0/2to0/1 0/1to1/1"/>
    </vehicle>
    <vehicle id="car172" type="privateType" depart="172.00">
        <route edges="0/3to0/2 0/2to0/1 0/1to1/1 1/1to2/1 2/1to2/2"/>
    </vehicle>
    <vehicle id="car173" type="privateType" depart="173.00">
        <route edges="3/3to3/2 3/2to3/1 3/1to3/0 3/0to2/0"/>
    </vehicle>
    <vehicle id="car174" type="privateType" depart="174.00">
        <route edges="1/2to1/3 1/3to0/3 0/3to1/3 1/3to2/3"/>
    </vehicle>
    <vehicle id="car175" type="privateType" depart="175.00">
        <route edges="3/1to2/1 2/1to3/1 3/1to3/2 3/2to2/2 2/2to3/2"/>
    </vehicle>
    <vehicle id="car176" type="privateType" depart="176.00">
        <route edges="3/3to2/3 2/3to1/3 1/3to1/2 1/2to1/1 1/1to1/0 1/0to1/1 1/1to0/1"/>
    </vehicle>
    <vehicle id="car177" type="privateType" depart="177.00">
        <route edges="1/1to1/0 1/0to1/1 1/1to0/1 0/1to1/1 1/1to2/1"/>
    </vehicle>
    <vehicle id="car178" type="privateType" depart="178.00">
        <route edges="1/2to1/3 1/3to1/2 1/2to1/1 1/1to1/0 1/0to2/0 2/0to1/0"/>
    </vehicle>
    <vehicle id="car179" type="privateType" depart="179.00">
        <route edges="3/2to3/3 3/3to2/3 2/3to1/3 1/3to0/3 0/3to1/3"/>
    </vehicle>
    <vehicle id="car180" type="privateType" depart="180.00">
        <route edges="2/2to1/2 1/2to1/1 1/1to1/0 1/0to1/1"/>
    </vehicle>
    <vehicle id="car181" type="privateType" depart="181.00">
        <route edges="1/3to0/3 0/3to0/2 0/2to1/2 1/2to2/2 2/2to3/2 3/2to3/3"/>
    </vehicle>
    <vehicle id="car182" type="privateType" depart="182.00">
        <route edges="1/2to2/2 2/2to1/2 1/2to1/1 1/1to1/0 1/0to2/0 2/0to3/0 3/0to2/0"/>
    </vehicle>
    <vehicle id="car183" type="privateType" depart="183.00">
        <route edges="1/1to1/0 1/0to1/1 1/1to0/1 0/1to0/0 0/0to0/1"/>
    </vehicle>
    <vehicle id="car184" type="privateType" depart="184.00">
        <route edges="0/2to1/2 1/2to0/2 0/2to0/1"/>
    </vehicle>
    <vehicle id="car185" type="privateType" depart="185.00">
        <route edges="2/2to2/3 2/3to1/3 1/3to1/2 1/2to1/1 1/1to2/1"/>
    </vehicle>
    <vehicle id="car186" type="privateType" depart="186.00">
        <route edges="2/0to3/0 3/0to3/1 3/1to2/1 2/1to1/1 1/1to0/1 0/1to1/1"/>
    </vehicle>
    <vehicle id="car187" type="privateType" depart="187.00">
        <route edges="2/0to2/1 2/1to1/1 1/1to0/1 0/1to0/0 0/0to0/1"/>
    </vehicle>
    <vehicle id="car188" type="privateType" depart="188.00">
        <route edges="2/3to2/2 2/2to2/1 2/1to2/2 2/2to1/2"/>
    </vehicle>
    <vehicle id="car189" type="privateType" depart="189.00">
        <route edges="2/2to2/1 2/1to2/2 2/2to1/2 1/2to0/2 0/2to0/1 0/1to0/0"/>
    </vehicle>
    <vehicle id="car190" type="privateType" depart="190.00">
        <route edges="2/3to2/2 2/2to2/1 2/1to2/2 2/2to1/2 1/2to0/2 0/2to0/1 0/1to0/0"/>
    </vehicle>
    <vehicle id="car191" type="privateType" depart="191.00">
        <route edges="2/0to2/1 2/1to1/1 1/1to2/1 2/1to3/1 3/1to3/2 3/2to3/1"/>
    </vehicle>
    <vehicle id="car192" type="privateType" depart="192.00">
        <route edges="2/2to1/2 1/2to0/2 0/2to1/2 1/2to1/3"/>
    </vehicle>
    <vehicle id="car193" type="privateType" depart="193.00">
        <route edges="2/1to2/2 2/2to2/1 2/1to2/0 2/0to3/0"/>
    </vehicle>
    <vehicle id="car194" type="privateType" depart="194.00">
        <route edges="0/2to0/3 0/3to0/2 0/2to1/2 1/2to2/2 2/2to1/2"/>
    </vehicle>
    <vehicle id="car195" type="privateType" depart="195.00">
        <route edges="1/1to1/0 1/0to2/0 2/0to3/0 3/0to3/1 3/1to3/2 3/2to3/3 3/3to2/3"/>
    </vehicle>
    <vehicle id="car196" type="privateType" depart="196.00">
        <route edges="1/0to2/0 2/0to2/1 2/1to2/2 2/2to2/1"/>
    </vehicle>
    <vehicle id="car197" type="privateType" depart="197.00">
        <route edges="1/2to0/2 0/2to0/1 0/1to0/0 0/0to1/0 1/0to2/0 2/0to3/0 3/0to3/1"/>
    </vehicle>
    <vehicle id="car198" type="privateType" depart="198.00">
        <route edges="2/2to2/3 2/3to1/3 1/3to1/2 1/2to1/1 1/1to2/1 2/1to1/1"/>
    </vehicle>
    <vehicle id="car199" type="privateType" depart="199.00">
        <route edges="1/1to1/2 1/2to0/2 0/2to1/2 1/2to2/2"/>
    </vehicle>
    <vehicle id="car200" type="privateType" depart="200.00">
        <route edges="1/2to0/2 0/2to1/2 1/2to2/2 2/2to3/2 3/2to2/2"/>
    </vehicle>
    <vehicle id="car201" type="privateType" depart="201.00">