<?xml version="1.0" encoding="UTF-8"?>

<!-- generated on Sun Feb 12 15:20:05 2017 by SUMO netgenerate Version 0.28.0
<?xml version="1.0" encoding="UTF-8"?>

<configuration xmlns:xsi="http://www.w3.org/2001/XMLSchema-instance" xsi:noNamespaceSchemaLocation="http://sumo.dlr.de/xsd/netgenerateConfiguration.xsd">

    <grid_network>
        <grid value="true"/>
        <grid.number value="4"/>
        <grid.length value="400"/>
    </grid_network>

    <output>
        <output-file value="MySUMOFile.net.xml"/>
    </output>

    <building_defaults>
        <default.lanenumber value="3"/>
    </building_defaults>

</configuration>
-->

<net version="0.27" xmlns:xsi="http://www.w3.org/2001/XMLSchema-instance" xsi:noNamespaceSchemaLocation="http://sumo.dlr.de/xsd/net_file.xsd">

    <location netOffset="0.00,0.00" convBoundary="0.00,0.00,1200.00,1200.00" origBoundary="0.00,0.00,1200.00,1200.00" projParameter="!"/>

    <edge id=":0/0_0" function="internal">
        <lane id=":0/0_0_0" index="0" allow="bus" speed="27.89" length="23.87" shape="-8.25,9.85 -7.12,1.93 -3.72,-3.72 1.93,-7.12 9.85,-8.25"/>
        <lane id=":0/0_0_1" index="1" speed="13.90" length="23.87" shape="-4.95,9.85 -4.02,3.38 -1.25,-1.25 3.38,-4.03 9.85,-4.95"/>
        <lane id=":0/0_0_2" index="2" speed="13.90" length="23.87" shape="-1.65,9.85 -0.93,4.82 1.23,1.23 4.82,-0.93 9.85,-1.65"/>
    </edge>
    <edge id=":0/0_3" function="internal">
        <lane id=":0/0_3_0" index="0" allow="bus" speed="27.89" length="2.69" shape="-1.65,9.85 -0.83,8.61 -0.00,8.20 0.25,8.33"/>
    </edge>
    <edge id=":0/0_8" function="internal">
        <lane id=":0/0_8_0" index="0" allow="bus" speed="27.89" length="2.13" shape="0.25,8.33 0.82,8.61 1.65,9.85"/>
    </edge>
    <edge id=":0/0_4" function="internal">
        <lane id=":0/0_4_0" index="0" allow="bus" speed="27.89" length="7.90" shape="9.85,8.25 9.15,8.35 8.65,8.65 8.35,9.15 8.25,9.85"/>
        <lane id=":0/0_4_1" index="1" speed="13.90" length="7.90" shape="9.85,4.95 7.71,5.26 6.18,6.18 5.26,7.71 4.95,9.85"/>
        <lane id=":0/0_4_2" index="2" speed="13.90" length="7.90" shape="9.85,1.65 6.26,2.16 3.70,3.70 2.16,6.26 1.65,9.85"/>
    </edge>
    <edge id=":0/0_7" function="internal">
        <lane id=":0/0_7_0" index="0" allow="bus" speed="27.89" length="2.20" shape="9.85,1.65 8.61,0.82 8.29,0.19"/>
    </edge>
    <edge id=":0/0_9" function="internal">
        <lane id=":0/0_9_0" index="0" allow="bus" speed="27.89" length="2.62" shape="8.29,0.19 8.20,-0.00 8.61,-0.83 9.85,-1.65"/>
    </edge>
    <edge id=":0/1_0" function="internal">
        <lane id=":0/1_0_0" index="0" allow="bus" speed="27.89" length="22.70" shape="-8.25,411.35 -8.25,388.65"/>
        <lane id=":0/1_0_1" index="1" speed="13.90" length="22.70" shape="-4.95,411.35 -4.95,388.65"/>
        <lane id=":0/1_0_2" index="2" speed="13.90" length="22.70" shape="-1.65,411.35 -1.65,388.65"/>
    </edge>
    <edge id=":0/1_3" function="internal">
        <lane id=":0/1_3_0" index="0" allow="bus" speed="27.89" length="8.35" shape="-1.65,411.35 -0.84,404.22 0.05,402.36"/>
        <lane id=":0/1_3_1" index="1" speed="13.90" length="8.35" shape="-1.65,411.35 -0.84,405.66 0.05,404.18"/>
    </edge>
    <edge id=":0/1_5" function="internal">
        <lane id=":0/1_5_0" index="0" allow="bus" speed="27.89" length="2.41" shape="-1.65,411.35 -0.83,410.11 0.00,409.70"/>
    </edge>
    <edge id=":0/1_15" function="internal">
        <lane id=":0/1_15_0" index="0" allow="bus" speed="27.89" length="14.45" shape="0.05,402.36 1.60,399.12 5.66,396.07 11.35,395.05"/>
    </edge>
    <edge id=":0/1_16" function="internal">
        <lane id=":0/1_16_0" index="0" allow="bus" speed="27.89" length="13.50" shape="0.05,404.18 1.60,401.60 5.66,399.16 11.35,398.35"/>
    </edge>
    <edge id=":0/1_17" function="internal">
        <lane id=":0/1_17_0" index="0" allow="bus" speed="27.89" length="2.41" shape="0.00,409.70 0.83,410.11 1.65,411.35"/>
    </edge>
    <edge id=":0/1_6" function="internal">
        <lane id=":0/1_6_0" index="0" allow="bus" speed="27.89" length="5.00" shape="11.35,408.25 9.99,408.44 9.02,409.02 8.44,409.99 8.25,411.35"/>
    </edge>
    <edge id=":0/1_7" function="internal">
        <lane id=":0/1_7_0" index="0" allow="bus" speed="27.89" length="23.63" shape="11.35,404.95 4.22,403.93 -0.87,400.88 -3.93,395.78 -4.95,388.65"/>
        <lane id=":0/1_7_1" index="1" speed="13.90" length="23.63" shape="11.35,401.65 5.66,400.84 1.60,398.40 -0.84,394.34 -1.65,388.65"/>
    </edge>
    <edge id=":0/1_9" function="internal">
        <lane id=":0/1_9_0" index="0" allow="bus" speed="27.89" length="4.82" shape="11.35,401.65 10.11,400.83 9.70,400.00 10.11,399.18 11.35,398.35"/>
    </edge>
    <edge id=":0/1_10" function="internal">
        <lane id=":0/1_10_0" index="0" allow="bus" speed="27.89" length="5.00" shape="8.25,388.65 8.44,390.01 9.03,390.98 9.99,391.56 11.35,391.75"/>
    </edge>
    <edge id=":0/1_11" function="internal">
        <lane id=":0/1_11_0" index="0" allow="bus" speed="27.89" length="22.70" shape="8.25,388.65 8.25,411.35"/>
        <lane id=":0/1_11_1" index="1" speed="13.90" length="22.70" shape="4.95,388.65 4.95,411.35"/>
        <lane id=":0/1_11_2" index="2" speed="13.90" length="22.70" shape="1.65,388.65 1.65,411.35"/>
    </edge>
    <edge id=":0/1_14" function="internal">
        <lane id=":0/1_14_0" index="0" allow="bus" speed="27.89" length="2.41" shape="1.65,388.65 0.83,389.89 0.00,390.30"/>
    </edge>
    <edge id=":0/1_18" function="internal">
        <lane id=":0/1_18_0" index="0" allow="bus" speed="27.89" length="2.41" shape="0.00,390.30 -0.83,389.89 -1.65,388.65"/>
    </edge>
    <edge id=":0/2_0" function="internal">
        <lane id=":0/2_0_0" index="0" allow="bus" speed="27.89" length="22.70" shape="-8.25,811.35 -8.25,788.65"/>
        <lane id=":0/2_0_1" index="1" speed="13.90" length="22.70" shape="-4.95,811.35 -4.95,788.65"/>
        <lane id=":0/2_0_2" index="2" speed="13.90" length="22.70" shape="-1.65,811.35 -1.65,788.65"/>
    </edge>
    <edge id=":0/2_3" function="internal">
        <lane id=":0/2_3_0" index="0" allow="bus" speed="27.89" length="8.35" shape="-1.65,811.35 -0.84,804.22 0.05,802.36"/>
        <lane id=":0/2_3_1" index="1" speed="13.90" length="8.35" shape="-1.65,811.35 -0.84,805.66 0.05,804.18"/>
    </edge>
    <edge id=":0/2_5" function="internal">
        <lane id=":0/2_5_0" index="0" allow="bus" speed="27.89" length="2.41" shape="-1.65,811.35 -0.83,810.11 0.00,809.70"/>
    </edge>
    <edge id=":0/2_15" function="internal">
        <lane id=":0/2_15_0" index="0" allow="bus" speed="27.89" length="14.45" shape="0.05,802.36 1.60,799.12 5.66,796.07 11.35,795.05"/>
    </edge>
    <edge id=":0/2_16" function="internal">
        <lane id=":0/2_16_0" index="0" allow="bus" speed="27.89" length="13.50" shape="0.05,804.18 1.60,801.60 5.66,799.16 11.35,798.35"/>
    </edge>
    <edge id=":0/2_17" function="internal">
        <lane id=":0/2_17_0" index="0" allow="bus" speed="27.89" length="2.41" shape="0.00,809.70 0.83,810.11 1.65,811.35"/>
    </edge>
    <edge id=":0/2_6" function="internal">
        <lane id=":0/2_6_0" index="0" allow="bus" speed="27.89" length="5.00" shape="11.35,808.25 9.99,808.44 9.02,809.02 8.44,809.99 8.25,811.35"/>
    </edge>
    <edge id=":0/2_7" function="internal">
        <lane id=":0/2_7_0" index="0" allow="bus" speed="27.89" length="23.63" shape="11.35,804.95 4.22,803.93 -0.87,800.88 -3.93,795.78 -4.95,788.65"/>
        <lane id=":0/2_7_1" index="1" speed="13.90" length="23.63" shape="11.35,801.65 5.66,800.84 1.60,798.40 -0.84,794.34 -1.65,788.65"/>
    </edge>
    <edge id=":0/2_9" function="internal">
        <lane id=":0/2_9_0" index="0" allow="bus" speed="27.89" length="4.82" shape="11.35,801.65 10.11,800.82 9.70,800.00 10.11,799.17 11.35,798.35"/>
    </edge>
    <edge id=":0/2_10" function="internal">
        <lane id=":0/2_10_0" index="0" allow="bus" speed="27.89" length="5.00" shape="8.25,788.65 8.44,790.01 9.03,790.98 9.99,791.56 11.35,791.75"/>
    </edge>
    <edge id=":0/2_11" function="internal">
        <lane id=":0/2_11_0" index="0" allow="bus" speed="27.89" length="22.70" shape="8.25,788.65 8.25,811.35"/>
        <lane id=":0/2_11_1" index="1" speed="13.90" length="22.70" shape="4.95,788.65 4.95,811.35"/>
        <lane id=":0/2_11_2" index="2" speed="13.90" length="22.70" shape="1.65,788.65 1.65,811.35"/>
    </edge>
    <edge id=":0/2_14" function="internal">
        <lane id=":0/2_14_0" index="0" allow="bus" speed="27.89" length="2.41" shape="1.65,788.65 0.83,789.89 0.00,790.30"/>
    </edge>
    <edge id=":0/2_18" function="internal">
        <lane id=":0/2_18_0" index="0" allow="bus" speed="27.89" length="2.41" shape="0.00,790.30 -0.83,789.89 -1.65,788.65"/>
    </edge>
    <edge id=":0/3_0" function="internal">
        <lane id=":0/3_0_0" index="0" allow="bus" speed="27.89" length="23.87" shape="9.85,1208.25 1.93,1207.12 -3.72,1203.72 -7.12,1198.07 -8.25,1190.15"/>
        <lane id=":0/3_0_1" index="1" speed="13.90" length="23.87" shape="9.85,1204.95 3.38,1204.03 -1.25,1201.25 -4.02,1196.62 -4.95,1190.15"/>
        <lane id=":0/3_0_2" index="2" speed="13.90" length="23.87" shape="9.85,1201.65 4.82,1200.93 1.22,1198.78 -0.93,1195.18 -1.65,1190.15"/>
    </edge>
    <edge id=":0/3_3" function="internal">
        <lane id=":0/3_3_0" index="0" allow="bus" speed="27.89" length="2.69" shape="9.85,1201.65 8.61,1200.82 8.20,1200.00 8.33,1199.75"/>
    </edge>
    <edge id=":0/3_8" function="internal">
        <lane id=":0/3_8_0" index="0" allow="bus" speed="27.89" length="2.13" shape="8.33,1199.75 8.61,1199.17 9.85,1198.35"/>
    </edge>
    <edge id=":0/3_4" function="internal">
        <lane id=":0/3_4_0" index="0" allow="bus" speed="27.89" length="7.90" shape="8.25,1190.15 8.35,1190.85 8.65,1191.35 9.15,1191.65 9.85,1191.75"/>
        <lane id=":0/3_4_1" index="1" speed="13.90" length="7.90" shape="4.95,1190.15 5.26,1192.29 6.18,1193.83 7.71,1194.74 9.85,1195.05"/>
        <lane id=":0/3_4_2" index="2" speed="13.90" length="7.90" shape="1.65,1190.15 2.16,1193.74 3.70,1196.30 6.26,1197.84 9.85,1198.35"/>
    </edge>
    <edge id=":0/3_7" function="internal">
        <lane id=":0/3_7_0" index="0" allow="bus" speed="27.89" length="2.20" shape="1.65,1190.15 0.83,1191.39 0.19,1191.71"/>
    </edge>
    <edge id=":0/3_9" function="internal">
        <lane id=":0/3_9_0" index="0" allow="bus" speed="27.89" length="2.62" shape="0.19,1191.71 0.00,1191.80 -0.83,1191.39 -1.65,1190.15"/>
    </edge>
    <edge id=":1/0_0" function="internal">
        <lane id=":1/0_0_0" index="0" allow="bus" speed="27.89" length="5.00" shape="391.75,11.35 391.56,9.99 390.98,9.03 390.01,8.44 388.65,8.25"/>
    </edge>
    <edge id=":1/0_1" function="internal">
        <lane id=":1/0_1_0" index="0" allow="bus" speed="27.89" length="23.63" shape="395.05,11.35 396.07,4.22 399.12,-0.87 404.22,-3.93 411.35,-4.95"/>
        <lane id=":1/0_1_1" index="1" speed="13.90" length="23.63" shape="398.35,11.35 399.16,5.66 401.60,1.60 405.66,-0.84 411.35,-1.65"/>
    </edge>
    <edge id=":1/0_3" function="internal">
        <lane id=":1/0_3_0" index="0" allow="bus" speed="27.89" length="4.82" shape="398.35,11.35 399.17,10.11 400.00,9.70 400.82,10.11 401.65,11.35"/>
    </edge>
    <edge id=":1/0_4" function="internal">
        <lane id=":1/0_4_0" index="0" allow="bus" speed="27.89" length="5.00" shape="411.35,8.25 409.99,8.44 409.02,9.03 408.44,9.99 408.25,11.35"/>
    </edge>
    <edge id=":1/0_5" function="internal">
        <lane id=":1/0_5_0" index="0" allow="bus" speed="27.89" length="22.70" shape="411.35,8.25 388.65,8.25"/>
        <lane id=":1/0_5_1" index="1" speed="13.90" length="22.70" shape="411.35,4.95 388.65,4.95"/>
        <lane id=":1/0_5_2" index="2" speed="13.90" length="22.70" shape="411.35,1.65 388.65,1.65"/>
    </edge>
    <edge id=":1/0_8" function="internal">
        <lane id=":1/0_8_0" index="0" allow="bus" speed="27.89" length="2.41" shape="411.35,1.65 410.11,0.83 409.70,0.00"/>
    </edge>
    <edge id=":1/0_15" function="internal">
        <lane id=":1/0_15_0" index="0" allow="bus" speed="27.89" length="2.41" shape="409.70,0.00 410.11,-0.83 411.35,-1.65"/>
    </edge>
    <edge id=":1/0_9" function="internal">
        <lane id=":1/0_9_0" index="0" allow="bus" speed="27.89" length="22.70" shape="388.65,-8.25 411.35,-8.25"/>
        <lane id=":1/0_9_1" index="1" speed="13.90" length="22.70" shape="388.65,-4.95 411.35,-4.95"/>
        <lane id=":1/0_9_2" index="2" speed="13.90" length="22.70" shape="388.65,-1.65 411.35,-1.65"/>
    </edge>
    <edge id=":1/0_12" function="internal">
        <lane id=":1/0_12_0" index="0" allow="bus" speed="27.89" length="8.35" shape="388.65,-1.65 395.78,-0.84 397.64,0.05"/>
        <lane id=":1/0_12_1" index="1" speed="13.90" length="8.35" shape="388.65,-1.65 394.34,-0.84 395.82,0.05"/>
    </edge>
    <edge id=":1/0_14" function="internal">
        <lane id=":1/0_14_0" index="0" allow="bus" speed="27.89" length="2.41" shape="388.65,-1.65 389.89,-0.83 390.30,0.00"/>
    </edge>
    <edge id=":1/0_16" function="internal">
        <lane id=":1/0_16_0" index="0" allow="bus" speed="27.89" length="14.45" shape="397.64,0.05 400.88,1.60 403.93,5.66 404.95,11.35"/>
    </edge>
    <edge id=":1/0_17" function="internal">
        <lane id=":1/0_17_0" index="0" allow="bus" speed="27.89" length="13.50" shape="395.82,0.05 398.40,1.60 400.84,5.66 401.65,11.35"/>
    </edge>
    <edge id=":1/0_18" function="internal">
        <lane id=":1/0_18_0" index="0" allow="bus" speed="27.89" length="2.41" shape="390.30,0.00 389.89,0.83 388.65,1.65"/>
    </edge>
    <edge id=":1/1_0" function="internal">
        <lane id=":1/1_0_0" index="0" allow="bus" speed="27.89" length="5.00" shape="391.75,411.35 391.56,409.99 390.98,409.02 390.01,408.44 388.65,408.25"/>
    </edge>
    <edge id=":1/1_1" function="internal">
        <lane id=":1/1_1_0" index="0" allow="bus" speed="27.89" length="22.70" shape="391.75,411.35 391.75,388.65"/>
        <lane id=":1/1_1_1" index="1" speed="13.90" length="22.70" shape="395.05,411.35 395.05,388.65"/>
        <lane id=":1/1_1_2" index="2" speed="13.90" length="22.70" shape="398.35,411.35 398.35,388.65"/>
    </edge>
    <edge id=":1/1_4" function="internal">
        <lane id=":1/1_4_0" index="0" allow="bus" speed="27.89" length="7.47" shape="398.35,411.35 399.16,405.66 400.05,404.18"/>
    </edge>
    <edge id=":1/1_5" function="internal">
        <lane id=":1/1_5_0" index="0" allow="bus" speed="27.89" length="2.41" shape="398.35,411.35 399.17,410.11 400.00,409.70"/>
    </edge>
    <edge id=":1/1_24" function="internal">
        <lane id=":1/1_24_0" index="0" allow="bus" speed="27.89" length="13.50" shape="400.05,404.18 401.60,401.60 405.66,399.16 411.35,398.35"/>
    </edge>
    <edge id=":1/1_25" function="internal">
        <lane id=":1/1_25_0" index="0" allow="bus" speed="27.89" length="2.41" shape="400.00,409.70 400.82,410.11 401.65,411.35"/>
    </edge>
    <edge id=":1/1_6" function="internal">
        <lane id=":1/1_6_0" index="0" allow="bus" speed="27.89" length="5.00" shape="411.35,408.25 409.99,408.44 409.02,409.02 408.44,409.99 408.25,411.35"/>
    </edge>
    <edge id=":1/1_7" function="internal">
        <lane id=":1/1_7_0" index="0" allow="bus" speed="27.89" length="22.70" shape="411.35,408.25 388.65,408.25"/>
        <lane id=":1/1_7_1" index="1" speed="13.90" length="22.70" shape="411.35,404.95 388.65,404.95"/>
        <lane id=":1/1_7_2" index="2" speed="13.90" length="22.70" shape="411.35,401.65 388.65,401.65"/>
    </edge>
    <edge id=":1/1_10" function="internal">
        <lane id=":1/1_10_0" index="0" allow="bus" speed="27.89" length="20.97" shape="411.35,401.65 405.66,400.84 401.60,398.40 399.16,394.34 398.35,388.65"/>
    </edge>
    <edge id=":1/1_11" function="internal">
        <lane id=":1/1_11_0" index="0" allow="bus" speed="27.89" length="4.82" shape="411.35,401.65 410.11,400.83 409.70,400.00 410.11,399.18 411.35,398.35"/>
    </edge>
    <edge id=":1/1_12" function="internal">
        <lane id=":1/1_12_0" index="0" allow="bus" speed="27.89" length="5.00" shape="408.25,388.65 408.44,390.01 409.02,390.98 409.99,391.56 411.35,391.75"/>
    </edge>
    <edge id=":1/1_13" function="internal">
        <lane id=":1/1_13_0" index="0" allow="bus" speed="27.89" length="22.70" shape="408.25,388.65 408.25,411.35"/>
        <lane id=":1/1_13_1" index="1" speed="13.90" length="22.70" shape="404.95,388.65 404.95,411.35"/>
        <lane id=":1/1_13_2" index="2" speed="13.90" length="22.70" shape="401.65,388.65 401.65,411.35"/>
    </edge>
    <edge id=":1/1_16" function="internal">
        <lane id=":1/1_16_0" index="0" allow="bus" speed="27.89" length="7.47" shape="401.65,388.65 400.84,394.34 399.95,395.82"/>
    </edge>
    <edge id=":1/1_17" function="internal">
        <lane id=":1/1_17_0" index="0" allow="bus" speed="27.89" length="2.41" shape="401.65,388.65 400.83,389.89 400.00,390.30"/>
    </edge>
    <edge id=":1/1_26" function="internal">
        <lane id=":1/1_26_0" index="0" allow="bus" speed="27.89" length="13.50" shape="399.95,395.82 398.40,398.40 394.34,400.84 388.65,401.65"/>
    </edge>
    <edge id=":1/1_27" function="internal">
        <lane id=":1/1_27_0" index="0" allow="bus" speed="27.89" length="2.41" shape="400.00,390.30 399.18,389.89 398.35,388.65"/>
    </edge>
    <edge id=":1/1_18" function="internal">
        <lane id=":1/1_18_0" index="0" allow="bus" speed="27.89" length="5.00" shape="388.65,391.75 390.01,391.56 390.98,390.98 391.56,390.01 391.75,388.65"/>
    </edge>
    <edge id=":1/1_19" function="internal">
        <lane id=":1/1_19_0" index="0" allow="bus" speed="27.89" length="22.70" shape="388.65,391.75 411.35,391.75"/>
        <lane id=":1/1_19_1" index="1" speed="13.90" length="22.70" shape="388.65,395.05 411.35,395.05"/>
        <lane id=":1/1_19_2" index="2" speed="13.90" length="22.70" shape="388.65,398.35 411.35,398.35"/>
    </edge>
    <edge id=":1/1_22" function="internal">
        <lane id=":1/1_22_0" index="0" allow="bus" speed="27.89" length="20.97" shape="388.65,398.35 394.34,399.16 398.40,401.60 400.84,405.66 401.65,411.35"/>
    </edge>
    <edge id=":1/1_23" function="internal">
        <lane id=":1/1_23_0" index="0" allow="bus" speed="27.89" length="4.82" shape="388.65,398.35 389.89,399.17 390.30,400.00 389.89,400.82 388.65,401.65"/>
    </edge>
    <edge id=":1/2_0" function="internal">
        <lane id=":1/2_0_0" index="0" allow="bus" speed="27.89" length="5.00" shape="391.75,811.35 391.56,809.99 390.98,809.02 390.01,808.44 388.65,808.25"/>
    </edge>
    <edge id=":1/2_1" function="internal">
        <lane id=":1/2_1_0" index="0" allow="bus" speed="27.89" length="22.70" shape="391.75,811.35 391.75,788.65"/>
        <lane id=":1/2_1_1" index="1" speed="13.90" length="22.70" shape="395.05,811.35 395.05,788.65"/>
        <lane id=":1/2_1_2" index="2" speed="13.90" length="22.70" shape="398.35,811.35 398.35,788.65"/>
    </edge>
    <edge id=":1/2_4" function="internal">
        <lane id=":1/2_4_0" index="0" allow="bus" speed="27.89" length="7.47" shape="398.35,811.35 399.16,805.66 400.05,804.18"/>
    </edge>
    <edge id=":1/2_5" function="internal">
        <lane id=":1/2_5_0" index="0" allow="bus" speed="27.89" length="2.41" shape="398.35,811.35 399.17,810.11 400.00,809.70"/>
    </edge>
    <edge id=":1/2_24" function="internal">
        <lane id=":1/2_24_0" index="0" allow="bus" speed="27.89" length="13.50" shape="400.05,804.18 401.60,801.60 405.66,799.16 411.35,798.35"/>
    </edge>
    <edge id=":1/2_25" function="internal">
        <lane id=":1/2_25_0" index="0" allow="bus" speed="27.89" length="2.41" shape="400.00,809.70 400.82,810.11 401.65,811.35"/>
    </edge>
    <edge id=":1/2_6" function="internal">
        <lane id=":1/2_6_0" index="0" allow="bus" speed="27.89" length="5.00" shape="411.35,808.25 409.99,808.44 409.02,809.02 408.44,809.99 408.25,811.35"/>
    </edge>
    <edge id=":1/2_7" function="internal">
        <lane id=":1/2_7_0" index="0" allow="bus" speed="27.89" length="22.70" shape="411.35,808.25 388.65,808.25"/>
        <lane id=":1/2_7_1" index="1" speed="13.90" length="22.70" shape="411.35,804.95 388.65,804.95"/>
        <lane id=":1/2_7_2" index="2" speed="13.90" length="22.70" shape="411.35,801.65 388.65,801.65"/>
    </edge>
    <edge id=":1/2_10" function="internal">
        <lane id=":1/2_10_0" index="0" allow="bus" speed="27.89" length="20.97" shape="411.35,801.65 405.66,800.84 401.60,798.40 399.16,794.34 398.35,788.65"/>
    </edge>
    <edge id=":1/2_11" function="internal">
        <lane id=":1/2_11_0" index="0" allow="bus" speed="27.89" length="4.82" shape="411.35,801.65 410.11,800.82 409.70,800.00 410.11,799.17 411.35,798.35"/>
    </edge>
    <edge id=":1/2_12" function="internal">
        <lane id=":1/2_12_0" index="0" allow="bus" speed="27.89" length="5.00" shape="408.25,788.65 408.44,790.01 409.02,790.98 409.99,791.56 411.35,791.75"/>
    </edge>
    <edge id=":1/2_13" function="internal">
        <lane id=":1/2_13_0" index="0" allow="bus" speed="27.89" length="22.70" shape="408.25,788.65 408.25,811.35"/>
        <lane id=":1/2_13_1" index="1" speed="13.90" length="22.70" shape="404.95,788.65 404.95,811.35"/>
        <lane id=":1/2_13_2" index="2" speed="13.90" length="22.70" shape="401.65,788.65 401.65,811.35"/>
    </edge>
    <edge id=":1/2_16" function="internal">
        <lane id=":1/2_16_0" index="0" allow="bus" speed="27.89" length="7.47" shape="401.65,788.65 400.84,794.34 399.95,795.82"/>
    </edge>
    <edge id=":1/2_17" function="internal">
        <lane id=":1/2_17_0" index="0" allow="bus" speed="27.89" length="2.41" shape="401.65,788.65 400.83,789.89 400.00,790.30"/>
    </edge>
    <edge id=":1/2_26" function="internal">
        <lane id=":1/2_26_0" index="0" allow="bus" speed="27.89" length="13.50" shape="399.95,795.82 398.40,798.40 394.34,800.84 388.65,801.65"/>
    </edge>
    <edge id=":1/2_27" function="internal">
        <lane id=":1/2_27_0" index="0" allow="bus" speed="27.89" length="2.41" shape="400.00,790.30 399.18,789.89 398.35,788.65"/>
    </edge>
    <edge id=":1/2_18" function="internal">
        <lane id=":1/2_18_0" index="0" allow="bus" speed="27.89" length="5.00" shape="388.65,791.75 390.01,791.56 390.98,790.98 391.56,790.01 391.75,788.65"/>
    </edge>
    <edge id=":1/2_19" function="internal">
        <lane id=":1/2_19_0" index="0" allow="bus" speed="27.89" length="22.70" shape="388.65,791.75 411.35,791.75"/>
        <lane id=":1/2_19_1" index="1" speed="13.90" length="22.70" shape="388.65,795.05 411.35,795.05"/>
        <lane id=":1/2_19_2" index="2" speed="13.90" length="22.70" shape="388.65,798.35 411.35,798.35"/>
    </edge>
    <edge id=":1/2_22" function="internal">
        <lane id=":1/2_22_0" index="0" allow="bus" speed="27.89" length="20.97" shape="388.65,798.35 394.34,799.16 398.40,801.60 400.84,805.66 401.65,811.35"/>
    </edge>
    <edge id=":1/2_23" function="internal">
        <lane id=":1/2_23_0" index="0" allow="bus" speed="27.89" length="4.82" shape="388.65,798.35 389.89,799.18 390.30,800.00 389.89,800.83 388.65,801.65"/>
    </edge>
    <edge id=":1/3_0" function="internal">
        <lane id=":1/3_0_0" index="0" allow="bus" speed="27.89" length="22.70" shape="411.35,1208.25 388.65,1208.25"/>
        <lane id=":1/3_0_1" index="1" speed="13.90" length="22.70" shape="411.35,1204.95 388.65,1204.95"/>
        <lane id=":1/3_0_2" index="2" speed="13.90" length="22.70" shape="411.35,1201.65 388.65,1201.65"/>
    </edge>
    <edge id=":1/3_3" function="internal">
        <lane id=":1/3_3_0" index="0" allow="bus" speed="27.89" length="8.35" shape="411.35,1201.65 404.22,1200.84 402.36,1199.95"/>
        <lane id=":1/3_3_1" index="1" speed="13.90" length="8.35" shape="411.35,1201.65 405.66,1200.84 404.18,1199.95"/>
    </edge>
    <edge id=":1/3_5" function="internal">
        <lane id=":1/3_5_0" index="0" allow="bus" speed="27.89" length="2.41" shape="411.35,1201.65 410.11,1200.82 409.70,1200.00"/>
    </edge>
    <edge id=":1/3_15" function="internal">
        <lane id=":1/3_15_0" index="0" allow="bus" speed="27.89" length="14.45" shape="402.36,1199.95 399.12,1198.40 396.07,1194.34 395.05,1188.65"/>
    </edge>
    <edge id=":1/3_16" function="internal">
        <lane id=":1/3_16_0" index="0" allow="bus" speed="27.89" length="13.50" shape="404.18,1199.95 401.60,1198.40 399.16,1194.34 398.35,1188.65"/>
    </edge>
    <edge id=":1/3_17" function="internal">
        <lane id=":1/3_17_0" index="0" allow="bus" speed="27.89" length="2.41" shape="409.70,1200.00 410.11,1199.17 411.35,1198.35"/>
    </edge>
    <edge id=":1/3_6" function="internal">
        <lane id=":1/3_6_0" index="0" allow="bus" speed="27.89" length="5.00" shape="408.25,1188.65 408.44,1190.01 409.02,1190.97 409.99,1191.56 411.35,1191.75"/>
    </edge>
    <edge id=":1/3_7" function="internal">
        <lane id=":1/3_7_0" index="0" allow="bus" speed="27.89" length="23.63" shape="404.95,1188.65 403.93,1195.78 400.88,1200.88 395.78,1203.93 388.65,1204.95"/>
        <lane id=":1/3_7_1" index="1" speed="13.90" length="23.63" shape="401.65,1188.65 400.84,1194.34 398.40,1198.40 394.34,1200.84 388.65,1201.65"/>
    </edge>
    <edge id=":1/3_9" function="internal">
        <lane id=":1/3_9_0" index="0" allow="bus" speed="27.89" length="4.82" shape="401.65,1188.65 400.83,1189.89 400.00,1190.30 399.18,1189.89 398.35,1188.65"/>
    </edge>
    <edge id=":1/3_10" function="internal">
        <lane id=":1/3_10_0" index="0" allow="bus" speed="27.89" length="5.00" shape="388.65,1191.75 390.01,1191.56 390.98,1190.97 391.56,1190.01 391.75,1188.65"/>
    </edge>
    <edge id=":1/3_11" function="internal">
        <lane id=":1/3_11_0" index="0" allow="bus" speed="27.89" length="22.70" shape="388.65,1191.75 411.35,1191.75"/>
        <lane id=":1/3_11_1" index="1" speed="13.90" length="22.70" shape="388.65,1195.05 411.35,1195.05"/>
        <lane id=":1/3_11_2" index="2" speed="13.90" length="22.70" shape="388.65,1198.35 411.35,1198.35"/>
    </edge>
    <edge id=":1/3_14" function="internal">
        <lane id=":1/3_14_0" index="0" allow="bus" speed="27.89" length="2.41" shape="388.65,1198.35 389.89,1199.18 390.30,1200.00"/>
    </edge>
    <edge id=":1/3_18" function="internal">
        <lane id=":1/3_18_0" index="0" allow="bus" speed="27.89" length="2.41" shape="390.30,1200.00 389.89,1200.83 388.65,1201.65"/>
    </edge>
    <edge id=":2/0_0" function="internal">
        <lane id=":2/0_0_0" index="0" allow="bus" speed="27.89" length="5.00" shape="791.75,11.35 791.56,9.99 790.98,9.02 790.01,8.44 788.65,8.25"/>
    </edge>
    <edge id=":2/0_1" function="internal">
        <lane id=":2/0_1_0" index="0" allow="bus" speed="27.89" length="23.63" shape="795.05,11.35 796.07,4.22 799.12,-0.87 804.22,-3.93 811.35,-4.95"/>
        <lane id=":2/0_1_1" index="1" speed="13.90" length="23.63" shape="798.35,11.35 799.16,5.66 801.60,1.60 805.66,-0.84 811.35,-1.65"/>
    </edge>
    <edge id=":2/0_3" function="internal">
        <lane id=":2/0_3_0" index="0" allow="bus" speed="27.89" length="4.82" shape="798.35,11.35 799.18,10.11 800.00,9.70 800.83,10.11 801.65,11.35"/>
    </edge>
    <edge id=":2/0_4" function="internal">
        <lane id=":2/0_4_0" index="0" allow="bus" speed="27.89" length="5.00" shape="811.35,8.25 809.99,8.44 809.02,9.03 808.44,9.99 808.25,11.35"/>
    </edge>
    <edge id=":2/0_5" function="internal">
        <lane id=":2/0_5_0" index="0" allow="bus" speed="27.89" length="22.70" shape="811.35,8.25 788.65,8.25"/>
        <lane id=":2/0_5_1" index="1" speed="13.90" length="22.70" shape="811.35,4.95 788.65,4.95"/>
        <lane id=":2/0_5_2" index="2" speed="13.90" length="22.70" shape="811.35,1.65 788.65,1.65"/>
    </edge>
    <edge id=":2/0_8" function="internal">
        <lane id=":2/0_8_0" index="0" allow="bus" speed="27.89" length="2.41" shape="811.35,1.65 810.11,0.83 809.70,0.00"/>
    </edge>
    <edge id=":2/0_15" function="internal">
        <lane id=":2/0_15_0" index="0" allow="bus" speed="27.89" length="2.41" shape="809.70,0.00 810.11,-0.83 811.35,-1.65"/>
    </edge>
    <edge id=":2/0_9" function="internal">
        <lane id=":2/0_9_0" index="0" allow="bus" speed="27.89" length="22.70" shape="788.65,-8.25 811.35,-8.25"/>
        <lane id=":2/0_9_1" index="1" speed="13.90" length="22.70" shape="788.65,-4.95 811.35,-4.95"/>
        <lane id=":2/0_9_2" index="2" speed="13.90" length="22.70" shape="788.65,-1.65 811.35,-1.65"/>
    </edge>
    <edge id=":2/0_12" function="internal">
        <lane id=":2/0_12_0" index="0" allow="bus" speed="27.89" length="8.35" shape="788.65,-1.65 795.78,-0.84 797.64,0.05"/>
        <lane id=":2/0_12_1" index="1" speed="13.90" length="8.35" shape="788.65,-1.65 794.34,-0.84 795.82,0.05"/>
    </edge>
    <edge id=":2/0_14" function="internal">
        <lane id=":2/0_14_0" index="0" allow="bus" speed="27.89" length="2.41" shape="788.65,-1.65 789.89,-0.83 790.30,0.00"/>
    </edge>
    <edge id=":2/0_16" function="internal">
        <lane id=":2/0_16_0" index="0" allow="bus" speed="27.89" length="14.45" shape="797.64,0.05 800.88,1.60 803.93,5.66 804.95,11.35"/>
    </edge>
    <edge id=":2/0_17" function="internal">
        <lane id=":2/0_17_0" index="0" allow="bus" speed="27.89" length="13.50" shape="795.82,0.05 798.40,1.60 800.84,5.66 801.65,11.35"/>
    </edge>
    <edge id=":2/0_18" function="internal">
        <lane id=":2/0_18_0" index="0" allow="bus" speed="27.89" length="2.41" shape="790.30,0.00 789.89,0.83 788.65,1.65"/>
    </edge>
    <edge id=":2/1_0" function="internal">
        <lane id=":2/1_0_0" index="0" allow="bus" speed="27.89" length="5.00" shape="791.75,411.35 791.56,409.99 790.98,409.02 790.01,408.44 788.65,408.25"/>
    </edge>
    <edge id=":2/1_1" function="internal">