<?xml version="1.0"?>
<!-- generated on 2017-02-18 19:14:34.798744 by $Id: randomTrips.py 21557 2016-09-28 10:43:52Z luecken $
  options: <doubleminus>net-file=grid-4.net.xml <doubleminus>trip-attributes=type="busType" <doubleminus>additional-file bustype.add.xml <doubleminus>edge-permission bus -r busroutes.rou.xml -p 20 -e 1500
-->
<trips>
    <trip id="0" depart="0.00" from="0/2to0/1" to="2/1to1/1" type="busType"/>
    <trip id="1" depart="20.00" from="1/1to1/0" to="2/0to1/0" type="busType"/>
    <trip id="2" depart="40.00" from="2/2to2/1" to="2/3to3/3" type="busType"/>
    <trip id="3" depart="60.00" from="2/3to3/3" to="0/2to1/2" type="busType"/>
    <trip id="4" depart="80.00" from="0/2to1/2" to="1/2to1/1" type="busType"/>
    <trip id="5" depart="100.00" from="1/0to0/0" to="1/2to2/2" type="busType"/>
    <trip id="6" depart="120.00" from="3/1to3/0" to="0/2to0/1" type="busType"/>
    <trip id="7" depart="140.00" from="2/1to2/0" to="0/2to0/1" type="busType"/>
    <trip id="8" depart="160.00" from="3/0to3/1" to="2/2to2/3" type="busType"/>
    <trip id="9" depart="180.00" from="3/2to3/1" to="0/3to1/3" type="busType"/>
    <trip id="10" depart="200.00" from="3/1to3/0" to="3/3to3/2" type="busType"/>
    <trip id="11" depart="220.00" from="1/1to0/1" to="2/2to1/2" type="busType"/>
    <trip id="12" depart="240.00" from="1/3to1/2" to="2/3to3/3" type="busType"/>
    <trip id="13" depart="260.00" from="0/2to0/3" to="0/0to1/0" type="busType"/>
    <trip id="14" depart="280.00" from="1/3to1/2" to="0/1to0/2" type="busType"/>
    <trip id="15" depart="300.00" from="1/1to0/1" to="1/1to2/1" type="busType"/>
    <trip id="16" depart="320.00" from="0/0to0/1" to="1/3to1/2" type="busType"/>
    <trip id="17" depart="340.00" from="2/2to1/2" to="2/2to3/2" type="busType"/>
    <trip id="18" depart="360.00" from="3/2to2/2" to="1/2to2/2" type="busType"/>
    <trip id="19" depart="380.00" from="0/0to0/1" to="3/3to2/3" type="busType"/>
    <trip id="20" depart="400.00" from="3/0to2/0" to="2/1to2/2" type="busType"/>
    <trip id="21" depart="420.00" from="0/0to0/1" to="3/1to3/0" type="busType"/>
    <trip id="22" depart="440.00" from="1/0to0/0" to="3/3to2/3" type="busType"/>
    <trip id="23" depart="460.00" from="0/2to1/2" to="2/1to2/2" type="busType"/>
    <trip id="24" depart="480.00" from="2/2to3/2" to="1/0to2/0" type="busType"/>
    <trip id="25" depart="500.00" from="2/2to2/1" to="1/0to2/0" type="busType"/>
    <trip id="26" depart="520.00" from="2/2to2/1" to="2/1to3/1" type="busType"/>
    <trip id="27" depart="540.00" from="1/0to1/1" to="2/0to2/1" type="busType"/>
    <trip id="28" depart="560.00" from="1/3to2/3" to="2/0to2/1" type="busType"/>
    <trip id="29" depart="580.00" from="2/0to3/0" to="1/0to1/1" type="busType"/>
    <trip id="30" depart="600.00" from="2/0to2/1" to="1/0to1/1" type="busType"/>
    <trip id="31" depart="620.00" from="0/0to1/0" to="2/1to1/1" type="busType"/>
    <trip id="32" depart="640.00" from="2/0to2/1" to="1/0to1/1" type="busType"/>
    <trip id="33" depart="660.00" from="3/1to3/0" to="1/3to0/3" type="busType"/>
    <trip id="34" depart="680.00" from="1/1to1/0" to="2/0to2/1" type="busType"/>
    <trip id="35" depart="700.00" from="0/3to0/2" to="1/2to0/2" type="busType"/>
    <trip id="36" depart="720.00" from="1/1to2/1" to="3/3to3/2" type="busType"/>
    <trip id="37" depart="740.00" from="3/2to3/3" to="3/1to3/2" type="busType"/>
    <trip id="38" depart="760.00" from="1/1to1/2" to="3/0to2/0" type="busType"/>
    <trip id="39" depart="780.00" from="0/2to0/1" to="1/1to2/1" type="busType"/>
    <trip id="40" depart="800.00" from="2/2to2/3" to="2/0to2/1" type="busType"/>
    <trip id="41" depart="820.00" from="1/3to2/3" to="1/3to2/3" type="busType"/>
    <trip id="42" depart="840.00" from="0/3to0/2" to="2/0to2/1" type="busType"/>
    <trip id="43" depart="860.00" from="1/2to1/3" to="0/0to1/0" type="busType"/>
    <trip id="44" depart="880.00" from="1/1to1/0" to="2/2to1/2" type="busType"/>
    <trip id="45" depart="900.00" from="2/1to2/0" to="3/3to3/2" type="busType"/>
    <trip id="46" depart="920.00" from="2/1to2/0" to="3/0to2/0" type="busType"/>
    <trip id="47" depart="940.00" from="3/0to2/0" to="0/2to0/3" type="busType"/>
    <trip id="48" depart="960.00" from="2/2to2/3" to="1/0to0/0" type="busType"/>
    <trip id="49" depart="980.00" from="3/1to3/2" to="2/1to2/0" type="busType"/>
    <trip id="50" depart="1000.00" from="1/1to2/1" to="2/1to2/0" type="busType"/>
    <trip id="51" depart="1020.00" from="0/3to0/2" to="1/3to1/2" type="busType"/>
    <trip id="52" depart="1040.00" from="0/0to0/1" to="3/3to3/2" type="busType"/>
    <trip id="53" depart="1060.00" from="1/3to1/2" to="0/1to0/2" type="busType"/>
    <trip id="54" depart="1080.00" from="2/0to2/1" to="3/3to2/3" type="busType"/>
    <trip id="55" depart="1100.00" from="3/1to3/0" to="1/1to0/1" type="busType"/>
    <trip id="56" depart="1120.00" from="1/2to1/3" to="2/3to2/2" type="busType"/>
    <trip id="57" depart="1140.00" from="0/2to0/1" to="2/2to2/3" type="busType"/>
    <trip id="58" depart="1160.00" from="1/0to0/0" to="1/2to2/2" type="busType"/>
    <trip id="59" depart="1180.00" from="1/3to2/3" to="1/2to2/2" type="busType"/>
    <trip id="60" depart="1200.00" from="1/2to2/2" to="1/0to2/0" type="busType"/>
    <trip id="61" depart="1220.00" from="2/0to2/1" to="1/3to1/2" type="busType"/>
    <trip id="62" depart="1240.00" from="3/3to2/3" to="2/2to1/2" type="busType"/>
    <trip id="63" depart="1260.00" from="1/2to2/2" to="1/0to1/1" type="busType"/>
    <trip id="64" depart="1280.00" from="2/0to1/0" to="1/1to1/0" type="busType"/>
    <trip id="65" depart="1300.00" from="1/2to2/2" to="2/1to2/2" type="busType"/>
    <trip id="66" depart="1320.00" from="3/2to2/2" to="0/0to0/1" type="busType"/>
    <trip id="67" depart="1340.00" from="1/3to2/3" to="2/1to3/1" type="busType"/>
    <trip id="68" depart="1360.00" from="0/2to1/2" to="0/1to0/2" type="busType"/>
    <trip id="69" depart="1380.00" from="2/1to2/0" to="2/2to2/3" type="busType"/>
    <trip id="70" depart="1400.00" from="2/1to3/1" to="0/0to1/0" type="busType"/>
    <trip id="71" depart="1420.00" from="1/3to2/3" to="3/3to3/2" type="busType"/>
    <trip id="72" depart="1440.00" from="0/3to1/3" to="3/1to3/0" type="busType"/>
    <trip id="73" depart="1460.00" from="0/2to1/2" to="1/3to0/3" type="busType"/>
    <trip id="74" depart="1480.00" from="3/0to3/1" to="2/3to3/3" type="busType"/>
</trips>
